* NGSPICE file created from heichips26_example_large.ext - technology: ihp-sg13cmos5l

* Black-box entry subcircuit for sg13cmos5l_decap_8 abstract view
.subckt sg13cmos5l_decap_8 VDD VSS
.ends

* Black-box entry subcircuit for sg13cmos5l_decap_4 abstract view
.subckt sg13cmos5l_decap_4 VDD VSS
.ends

* Black-box entry subcircuit for sg13cmos5l_inv_1 abstract view
.subckt sg13cmos5l_inv_1 Y A VDD VSS
.ends

* Black-box entry subcircuit for sg13cmos5l_tielo abstract view
.subckt sg13cmos5l_tielo L_LO VDD VSS
.ends

* Black-box entry subcircuit for sg13cmos5l_fill_2 abstract view
.subckt sg13cmos5l_fill_2 VDD VSS
.ends

* Black-box entry subcircuit for sg13cmos5l_buf_1 abstract view
.subckt sg13cmos5l_buf_1 X A VDD VSS
.ends

* Black-box entry subcircuit for sg13cmos5l_xnor2_1 abstract view
.subckt sg13cmos5l_xnor2_1 Y A B VDD VSS
.ends

* Black-box entry subcircuit for sg13cmos5l_xor2_1 abstract view
.subckt sg13cmos5l_xor2_1 X A B VDD VSS
.ends

* Black-box entry subcircuit for sg13cmos5l_fill_1 abstract view
.subckt sg13cmos5l_fill_1 VDD VSS
.ends

* Black-box entry subcircuit for sg13cmos5l_nand2_1 abstract view
.subckt sg13cmos5l_nand2_1 Y A B VDD VSS
.ends

* Black-box entry subcircuit for sg13cmos5l_o21ai_1 abstract view
.subckt sg13cmos5l_o21ai_1 Y A1 A2 B1 VDD VSS
.ends

* Black-box entry subcircuit for sg13cmos5l_and2_1 abstract view
.subckt sg13cmos5l_and2_1 X A B VDD VSS
.ends

* Black-box entry subcircuit for sg13cmos5l_a21oi_1 abstract view
.subckt sg13cmos5l_a21oi_1 Y A1 A2 B1 VDD VSS
.ends

* Black-box entry subcircuit for sg13cmos5l_nand2b_1 abstract view
.subckt sg13cmos5l_nand2b_1 Y A_N B VDD VSS
.ends

* Black-box entry subcircuit for sg13cmos5l_nor2_1 abstract view
.subckt sg13cmos5l_nor2_1 Y A B VDD VSS
.ends

* Black-box entry subcircuit for sg13cmos5l_a221oi_1 abstract view
.subckt sg13cmos5l_a221oi_1 Y A1 A2 B1 B2 C1 VDD VSS
.ends

* Black-box entry subcircuit for sg13cmos5l_or2_1 abstract view
.subckt sg13cmos5l_or2_1 X A B VDD VSS
.ends

.subckt heichips26_example_large VGND VPWR clk ena rst_n ui_in[0] ui_in[1] ui_in[2]
+ ui_in[3] ui_in[4] ui_in[5] ui_in[6] ui_in[7] uio_in[0] uio_in[1] uio_in[2] uio_in[3]
+ uio_in[4] uio_in[5] uio_in[6] uio_in[7] uio_oe[0] uio_oe[1] uio_oe[2] uio_oe[3]
+ uio_oe[4] uio_oe[5] uio_oe[6] uio_oe[7] uio_out[0] uio_out[1] uio_out[2] uio_out[3]
+ uio_out[4] uio_out[5] uio_out[6] uio_out[7] uo_out[0] uo_out[1] uo_out[2] uo_out[3]
+ uo_out[4] uo_out[5] uo_out[6] uo_out[7]
XFILLER_95_851 VPWR VGND sg13cmos5l_decap_8
XFILLER_79_391 VPWR VGND sg13cmos5l_decap_8
XFILLER_94_350 VPWR VGND sg13cmos5l_decap_8
XFILLER_67_586 VPWR VGND sg13cmos5l_decap_8
XFILLER_27_417 VPWR VGND sg13cmos5l_decap_8
XFILLER_39_277 VPWR VGND sg13cmos5l_decap_8
XFILLER_82_545 VPWR VGND sg13cmos5l_decap_8
XFILLER_54_258 VPWR VGND sg13cmos5l_decap_8
XFILLER_36_973 VPWR VGND sg13cmos5l_decap_8
XFILLER_63_770 VPWR VGND sg13cmos5l_decap_8
XFILLER_51_921 VPWR VGND sg13cmos5l_decap_8
XFILLER_23_623 VPWR VGND sg13cmos5l_decap_8
XFILLER_35_483 VPWR VGND sg13cmos5l_decap_8
XFILLER_50_420 VPWR VGND sg13cmos5l_decap_8
XFILLER_51_998 VPWR VGND sg13cmos5l_decap_8
XFILLER_22_144 VPWR VGND sg13cmos5l_decap_8
XFILLER_50_497 VPWR VGND sg13cmos5l_decap_8
XFILLER_105_945 VPWR VGND sg13cmos5l_decap_8
XFILLER_104_455 VPWR VGND sg13cmos5l_decap_8
XFILLER_89_133 VPWR VGND sg13cmos5l_decap_8
XFILLER_78_818 VPWR VGND sg13cmos5l_decap_8
XFILLER_86_851 VPWR VGND sg13cmos5l_decap_8
XFILLER_58_520 VPWR VGND sg13cmos5l_decap_8
XFILLER_100_672 VPWR VGND sg13cmos5l_decap_8
XFILLER_85_350 VPWR VGND sg13cmos5l_decap_8
XFILLER_73_501 VPWR VGND sg13cmos5l_decap_8
XFILLER_46_704 VPWR VGND sg13cmos5l_decap_8
XFILLER_18_406 VPWR VGND sg13cmos5l_decap_8
XFILLER_93_25 VPWR VGND sg13cmos5l_decap_8
XFILLER_58_597 VPWR VGND sg13cmos5l_decap_8
XFILLER_45_203 VPWR VGND sg13cmos5l_decap_8
XFILLER_73_578 VPWR VGND sg13cmos5l_decap_8
XFILLER_42_921 VPWR VGND sg13cmos5l_decap_8
XFILLER_14_623 VPWR VGND sg13cmos5l_decap_8
XFILLER_26_63 VPWR VGND sg13cmos5l_decap_8
XFILLER_26_483 VPWR VGND sg13cmos5l_decap_8
XFILLER_27_984 VPWR VGND sg13cmos5l_decap_8
XFILLER_53_280 VPWR VGND sg13cmos5l_decap_8
XFILLER_13_133 VPWR VGND sg13cmos5l_decap_8
XFILLER_41_420 VPWR VGND sg13cmos5l_decap_8
XFILLER_42_998 VPWR VGND sg13cmos5l_decap_8
XFILLER_9_126 VPWR VGND sg13cmos5l_decap_8
XFILLER_41_497 VPWR VGND sg13cmos5l_decap_8
XFILLER_42_95 VPWR VGND sg13cmos5l_decap_8
XFILLER_10_851 VPWR VGND sg13cmos5l_decap_8
XFILLER_6_833 VPWR VGND sg13cmos5l_decap_8
XFILLER_5_354 VPWR VGND sg13cmos5l_decap_8
XFILLER_96_637 VPWR VGND sg13cmos5l_decap_8
XFILLER_3_56 VPWR VGND sg13cmos5l_decap_8
XFILLER_1_560 VPWR VGND sg13cmos5l_decap_8
XFILLER_77_840 VPWR VGND sg13cmos5l_decap_8
XFILLER_95_158 VPWR VGND sg13cmos5l_decap_8
XFILLER_49_564 VPWR VGND sg13cmos5l_decap_8
XFILLER_37_704 VPWR VGND sg13cmos5l_decap_8
XFILLER_64_534 VPWR VGND sg13cmos5l_decap_8
XFILLER_36_203 VPWR VGND sg13cmos5l_decap_8
XFILLER_92_854 VPWR VGND sg13cmos5l_decap_8
XFILLER_52_707 VPWR VGND sg13cmos5l_decap_8
XFILLER_18_973 VPWR VGND sg13cmos5l_decap_8
XFILLER_91_364 VPWR VGND sg13cmos5l_decap_8
XFILLER_51_228 VPWR VGND sg13cmos5l_decap_8
XFILLER_45_770 VPWR VGND sg13cmos5l_decap_8
XFILLER_33_910 VPWR VGND sg13cmos5l_decap_8
XFILLER_44_291 VPWR VGND sg13cmos5l_decap_8
XFILLER_17_494 VPWR VGND sg13cmos5l_decap_8
XFILLER_32_431 VPWR VGND sg13cmos5l_decap_8
XFILLER_60_762 VPWR VGND sg13cmos5l_decap_8
XFILLER_33_987 VPWR VGND sg13cmos5l_decap_8
XFILLER_20_648 VPWR VGND sg13cmos5l_decap_8
XFILLER_9_693 VPWR VGND sg13cmos5l_decap_8
XFILLER_99_420 VPWR VGND sg13cmos5l_decap_8
XFILLER_99_497 VPWR VGND sg13cmos5l_decap_8
XFILLER_87_637 VPWR VGND sg13cmos5l_decap_8
XFILLER_102_959 VPWR VGND sg13cmos5l_decap_8
XFILLER_68_851 VPWR VGND sg13cmos5l_decap_8
XFILLER_101_469 VPWR VGND sg13cmos5l_decap_8
XFILLER_86_158 VPWR VGND sg13cmos5l_decap_8
XFILLER_67_383 VPWR VGND sg13cmos5l_decap_8
XFILLER_27_214 VPWR VGND sg13cmos5l_decap_8
XFILLER_103_35 VPWR VGND sg13cmos5l_decap_8
XFILLER_83_865 VPWR VGND sg13cmos5l_decap_8
XFILLER_82_342 VPWR VGND sg13cmos5l_decap_8
XFILLER_55_567 VPWR VGND sg13cmos5l_decap_8
XFILLER_43_707 VPWR VGND sg13cmos5l_decap_8
XFILLER_70_537 VPWR VGND sg13cmos5l_decap_8
XFILLER_63_28 VPWR VGND sg13cmos5l_decap_8
XFILLER_42_228 VPWR VGND sg13cmos5l_decap_8
XFILLER_24_921 VPWR VGND sg13cmos5l_decap_8
XFILLER_36_770 VPWR VGND sg13cmos5l_decap_8
XFILLER_23_420 VPWR VGND sg13cmos5l_decap_8
XFILLER_35_280 VPWR VGND sg13cmos5l_decap_8
XFILLER_24_998 VPWR VGND sg13cmos5l_decap_8
XFILLER_51_795 VPWR VGND sg13cmos5l_decap_8
XFILLER_50_294 VPWR VGND sg13cmos5l_decap_8
XFILLER_11_637 VPWR VGND sg13cmos5l_decap_8
XFILLER_23_497 VPWR VGND sg13cmos5l_decap_8
XFILLER_10_158 VPWR VGND sg13cmos5l_decap_8
XFILLER_12_32 VPWR VGND sg13cmos5l_decap_8
XFILLER_88_25 VPWR VGND sg13cmos5l_decap_8
XFILLER_3_847 VPWR VGND sg13cmos5l_decap_8
XFILLER_105_742 VPWR VGND sg13cmos5l_decap_8
XFILLER_5_4 VPWR VGND sg13cmos5l_decap_8
XFILLER_104_252 VPWR VGND sg13cmos5l_decap_8
XFILLER_78_615 VPWR VGND sg13cmos5l_decap_8
XFILLER_2_368 VPWR VGND sg13cmos5l_decap_8
XFILLER_77_147 VPWR VGND sg13cmos5l_decap_8
XFILLER_74_810 VPWR VGND sg13cmos5l_decap_8
XFILLER_59_851 VPWR VGND sg13cmos5l_decap_8
XFILLER_46_501 VPWR VGND sg13cmos5l_decap_8
XFILLER_58_394 VPWR VGND sg13cmos5l_decap_8
XFILLER_18_203 VPWR VGND sg13cmos5l_decap_8
XFILLER_74_887 VPWR VGND sg13cmos5l_decap_8
XFILLER_73_375 VPWR VGND sg13cmos5l_decap_8
XFILLER_46_578 VPWR VGND sg13cmos5l_decap_8
XFILLER_15_921 VPWR VGND sg13cmos5l_decap_8
XFILLER_27_781 VPWR VGND sg13cmos5l_decap_8
XFILLER_33_217 VPWR VGND sg13cmos5l_decap_8
XFILLER_34_718 VPWR VGND sg13cmos5l_decap_8
XFILLER_37_95 VPWR VGND sg13cmos5l_decap_8
XFILLER_61_559 VPWR VGND sg13cmos5l_decap_8
XFILLER_14_420 VPWR VGND sg13cmos5l_decap_8
XFILLER_26_280 VPWR VGND sg13cmos5l_decap_8
XFILLER_15_998 VPWR VGND sg13cmos5l_decap_8
XFILLER_18_1015 VPWR VGND sg13cmos5l_decap_8
XFILLER_30_924 VPWR VGND sg13cmos5l_decap_8
XFILLER_42_795 VPWR VGND sg13cmos5l_decap_8
XFILLER_14_497 VPWR VGND sg13cmos5l_decap_8
XFILLER_41_294 VPWR VGND sg13cmos5l_decap_8
XFILLER_6_630 VPWR VGND sg13cmos5l_decap_8
XFILLER_5_151 VPWR VGND sg13cmos5l_decap_8
XFILLER_97_924 VPWR VGND sg13cmos5l_decap_8
XFILLER_64_1024 VPWR VGND sg13cmos5l_decap_4
XFILLER_96_434 VPWR VGND sg13cmos5l_decap_8
XFILLER_69_659 VPWR VGND sg13cmos5l_decap_8
XFILLER_25_1008 VPWR VGND sg13cmos5l_decap_8
XFILLER_68_158 VPWR VGND sg13cmos5l_decap_8
XFILLER_65_821 VPWR VGND sg13cmos5l_decap_8
XFILLER_49_361 VPWR VGND sg13cmos5l_decap_8
XFILLER_37_501 VPWR VGND sg13cmos5l_decap_8
XFILLER_92_651 VPWR VGND sg13cmos5l_decap_8
XFILLER_80_802 VPWR VGND sg13cmos5l_decap_8
XFILLER_64_331 VPWR VGND sg13cmos5l_decap_8
XFILLER_25_707 VPWR VGND sg13cmos5l_decap_8
XFILLER_91_161 VPWR VGND sg13cmos5l_decap_8
XFILLER_65_898 VPWR VGND sg13cmos5l_decap_8
XFILLER_52_504 VPWR VGND sg13cmos5l_decap_8
XFILLER_18_770 VPWR VGND sg13cmos5l_decap_8
XFILLER_37_578 VPWR VGND sg13cmos5l_decap_8
XFILLER_17_291 VPWR VGND sg13cmos5l_decap_8
XFILLER_24_228 VPWR VGND sg13cmos5l_decap_8
XFILLER_80_879 VPWR VGND sg13cmos5l_decap_8
XFILLER_71_1006 VPWR VGND sg13cmos5l_decap_8
XFILLER_21_924 VPWR VGND sg13cmos5l_decap_8
XFILLER_33_784 VPWR VGND sg13cmos5l_decap_8
XFILLER_20_445 VPWR VGND sg13cmos5l_decap_8
XFILLER_9_490 VPWR VGND sg13cmos5l_decap_8
XFILLER_106_539 VPWR VGND sg13cmos5l_decap_8
XFILLER_88_935 VPWR VGND sg13cmos5l_decap_8
XFILLER_58_28 VPWR VGND sg13cmos5l_decap_4
XFILLER_102_756 VPWR VGND sg13cmos5l_decap_8
XFILLER_99_294 VPWR VGND sg13cmos5l_decap_8
XFILLER_87_434 VPWR VGND sg13cmos5l_decap_8
XFILLER_101_266 VPWR VGND sg13cmos5l_decap_8
XFILLER_75_629 VPWR VGND sg13cmos5l_decap_8
XFILLER_59_158 VPWR VGND sg13cmos5l_decap_8
XFILLER_74_117 VPWR VGND sg13cmos5l_decap_8
XFILLER_56_832 VPWR VGND sg13cmos5l_decap_8
XFILLER_74_49 VPWR VGND sg13cmos5l_decap_8
XFILLER_67_180 VPWR VGND sg13cmos5l_decap_8
XFILLER_16_707 VPWR VGND sg13cmos5l_decap_8
XFILLER_28_567 VPWR VGND sg13cmos5l_decap_8
XFILLER_83_662 VPWR VGND sg13cmos5l_decap_8
XFILLER_71_824 VPWR VGND sg13cmos5l_decap_8
XFILLER_55_364 VPWR VGND sg13cmos5l_decap_8
XFILLER_43_504 VPWR VGND sg13cmos5l_decap_8
XFILLER_70_334 VPWR VGND sg13cmos5l_decap_8
XFILLER_15_228 VPWR VGND sg13cmos5l_decap_8
XFILLER_51_592 VPWR VGND sg13cmos5l_decap_8
XFILLER_12_935 VPWR VGND sg13cmos5l_decap_8
XFILLER_24_795 VPWR VGND sg13cmos5l_decap_8
XFILLER_8_917 VPWR VGND sg13cmos5l_decap_8
XFILLER_11_434 VPWR VGND sg13cmos5l_decap_8
XFILLER_23_42 VPWR VGND sg13cmos5l_decap_8
XFILLER_23_294 VPWR VGND sg13cmos5l_decap_8
XFILLER_7_438 VPWR VGND sg13cmos5l_decap_8
XFILLER_99_35 VPWR VGND sg13cmos5l_decap_8
XFILLER_48_1008 VPWR VGND sg13cmos5l_decap_8
XFILLER_79_902 VPWR VGND sg13cmos5l_decap_8
XFILLER_3_644 VPWR VGND sg13cmos5l_decap_8
XFILLER_78_412 VPWR VGND sg13cmos5l_decap_8
XFILLER_2_165 VPWR VGND sg13cmos5l_decap_8
XFILLER_79_979 VPWR VGND sg13cmos5l_decap_8
XFILLER_94_938 VPWR VGND sg13cmos5l_decap_8
XFILLER_78_489 VPWR VGND sg13cmos5l_decap_8
XFILLER_65_128 VPWR VGND sg13cmos5l_decap_8
XFILLER_93_459 VPWR VGND sg13cmos5l_decap_8
XFILLER_58_191 VPWR VGND sg13cmos5l_decap_8
XFILLER_47_854 VPWR VGND sg13cmos5l_decap_8
XFILLER_0_35 VPWR VGND sg13cmos5l_decap_8
XFILLER_80_109 VPWR VGND sg13cmos5l_decap_8
XFILLER_74_684 VPWR VGND sg13cmos5l_decap_8
XFILLER_46_375 VPWR VGND sg13cmos5l_decap_8
XFILLER_19_567 VPWR VGND sg13cmos5l_decap_8
XFILLER_34_515 VPWR VGND sg13cmos5l_decap_8
XFILLER_73_172 VPWR VGND sg13cmos5l_decap_8
XFILLER_62_846 VPWR VGND sg13cmos5l_decap_8
XFILLER_64_93 VPWR VGND sg13cmos5l_decap_8
XFILLER_61_356 VPWR VGND sg13cmos5l_decap_8
XFILLER_42_592 VPWR VGND sg13cmos5l_decap_8
XFILLER_15_795 VPWR VGND sg13cmos5l_decap_8
XFILLER_30_721 VPWR VGND sg13cmos5l_decap_8
XFILLER_9_77 VPWR VGND sg13cmos5l_decap_8
XFILLER_14_294 VPWR VGND sg13cmos5l_decap_8
XFILLER_80_81 VPWR VGND sg13cmos5l_decap_8
XFILLER_30_798 VPWR VGND sg13cmos5l_decap_8
XFILLER_31_1001 VPWR VGND sg13cmos5l_decap_8
XFILLER_97_721 VPWR VGND sg13cmos5l_decap_8
XFILLER_96_231 VPWR VGND sg13cmos5l_decap_8
XFILLER_69_456 VPWR VGND sg13cmos5l_decap_8
XFILLER_97_798 VPWR VGND sg13cmos5l_decap_8
XFILLER_85_938 VPWR VGND sg13cmos5l_decap_8
XFILLER_84_448 VPWR VGND sg13cmos5l_decap_8
XFILLER_56_139 VPWR VGND sg13cmos5l_decap_8
XFILLER_38_854 VPWR VGND sg13cmos5l_decap_8
X_49_ _56_/A _50_/B VPWR VGND sg13cmos5l_inv_1
XFILLER_52_301 VPWR VGND sg13cmos5l_decap_8
XFILLER_25_504 VPWR VGND sg13cmos5l_decap_8
XFILLER_37_375 VPWR VGND sg13cmos5l_decap_8
XFILLER_65_695 VPWR VGND sg13cmos5l_decap_8
XFILLER_53_868 VPWR VGND sg13cmos5l_decap_8
XFILLER_80_676 VPWR VGND sg13cmos5l_decap_8
XFILLER_52_378 VPWR VGND sg13cmos5l_decap_8
XFILLER_40_518 VPWR VGND sg13cmos5l_decap_8
XFILLER_100_14 VPWR VGND sg13cmos5l_decap_8
XFILLER_21_721 VPWR VGND sg13cmos5l_decap_8
XFILLER_33_581 VPWR VGND sg13cmos5l_decap_8
XFILLER_20_242 VPWR VGND sg13cmos5l_decap_8
XFILLER_21_798 VPWR VGND sg13cmos5l_decap_8
XFILLER_106_336 VPWR VGND sg13cmos5l_decap_8
XFILLER_79_209 VPWR VGND sg13cmos5l_decap_8
XFILLER_69_49 VPWR VGND sg13cmos5l_decap_8
XFILLER_88_732 VPWR VGND sg13cmos5l_decap_8
XFILLER_102_553 VPWR VGND sg13cmos5l_decap_8
XFILLER_87_231 VPWR VGND sg13cmos5l_decap_8
XFILLER_76_916 VPWR VGND sg13cmos5l_decap_8
XFILLER_0_658 VPWR VGND sg13cmos5l_decap_8
XFILLER_75_426 VPWR VGND sg13cmos5l_decap_8
XFILLER_18_42 VPWR VGND sg13cmos5l_decap_8
XFILLER_29_865 VPWR VGND sg13cmos5l_decap_8
XFILLER_55_161 VPWR VGND sg13cmos5l_decap_8
XFILLER_44_802 VPWR VGND sg13cmos5l_decap_8
XFILLER_43_301 VPWR VGND sg13cmos5l_decap_8
XFILLER_16_504 VPWR VGND sg13cmos5l_decap_8
XFILLER_28_364 VPWR VGND sg13cmos5l_decap_8
XFILLER_71_621 VPWR VGND sg13cmos5l_decap_8
XFILLER_70_131 VPWR VGND sg13cmos5l_decap_8
XFILLER_44_879 VPWR VGND sg13cmos5l_decap_8
XFILLER_31_518 VPWR VGND sg13cmos5l_decap_8
XFILLER_71_698 VPWR VGND sg13cmos5l_decap_8
XFILLER_43_378 VPWR VGND sg13cmos5l_decap_8
XFILLER_11_231 VPWR VGND sg13cmos5l_decap_8
XFILLER_12_732 VPWR VGND sg13cmos5l_decap_8
XFILLER_24_592 VPWR VGND sg13cmos5l_decap_8
XFILLER_34_74 VPWR VGND sg13cmos5l_decap_8
XFILLER_8_714 VPWR VGND sg13cmos5l_decap_8
XFILLER_7_235 VPWR VGND sg13cmos5l_decap_8
Xheichips26_example_large_31 uio_oe[7] VPWR VGND sg13cmos5l_tielo
XFILLER_50_84 VPWR VGND sg13cmos5l_decap_8
XFILLER_4_931 VPWR VGND sg13cmos5l_decap_8
XFILLER_98_529 VPWR VGND sg13cmos5l_decap_8
XFILLER_3_441 VPWR VGND sg13cmos5l_decap_8
XFILLER_59_60 VPWR VGND sg13cmos5l_decap_8
XFILLER_79_776 VPWR VGND sg13cmos5l_decap_8
XFILLER_94_735 VPWR VGND sg13cmos5l_decap_8
XFILLER_78_286 VPWR VGND sg13cmos5l_decap_8
XFILLER_93_256 VPWR VGND sg13cmos5l_decap_8
XFILLER_66_448 VPWR VGND sg13cmos5l_decap_8
XFILLER_81_429 VPWR VGND sg13cmos5l_decap_8
XFILLER_75_993 VPWR VGND sg13cmos5l_decap_8
XFILLER_47_651 VPWR VGND sg13cmos5l_decap_8
XFILLER_19_364 VPWR VGND sg13cmos5l_decap_8
XFILLER_74_481 VPWR VGND sg13cmos5l_decap_8
XFILLER_62_643 VPWR VGND sg13cmos5l_decap_8
XFILLER_46_172 VPWR VGND sg13cmos5l_decap_8
XFILLER_34_312 VPWR VGND sg13cmos5l_decap_8
XFILLER_90_963 VPWR VGND sg13cmos5l_decap_8
XFILLER_61_153 VPWR VGND sg13cmos5l_decap_8
XFILLER_50_805 VPWR VGND sg13cmos5l_decap_8
XFILLER_35_868 VPWR VGND sg13cmos5l_decap_8
XFILLER_22_529 VPWR VGND sg13cmos5l_decap_8
XFILLER_34_389 VPWR VGND sg13cmos5l_decap_8
XFILLER_91_91 VPWR VGND sg13cmos5l_decap_8
XFILLER_15_592 VPWR VGND sg13cmos5l_decap_8
XFILLER_30_595 VPWR VGND sg13cmos5l_decap_8
XFILLER_89_518 VPWR VGND sg13cmos5l_decap_8
XFILLER_69_253 VPWR VGND sg13cmos5l_decap_8
XFILLER_58_905 VPWR VGND sg13cmos5l_decap_8
XFILLER_97_595 VPWR VGND sg13cmos5l_decap_8
XFILLER_85_735 VPWR VGND sg13cmos5l_decap_8
XFILLER_84_245 VPWR VGND sg13cmos5l_decap_8
XFILLER_57_448 VPWR VGND sg13cmos5l_decap_8
XFILLER_77_1001 VPWR VGND sg13cmos5l_decap_8
XFILLER_44_109 VPWR VGND sg13cmos5l_decap_8
XFILLER_38_651 VPWR VGND sg13cmos5l_decap_8
XFILLER_65_492 VPWR VGND sg13cmos5l_decap_8
XFILLER_25_301 VPWR VGND sg13cmos5l_decap_8
XFILLER_37_172 VPWR VGND sg13cmos5l_decap_8
XFILLER_53_665 VPWR VGND sg13cmos5l_decap_8
XFILLER_41_805 VPWR VGND sg13cmos5l_decap_8
XFILLER_26_868 VPWR VGND sg13cmos5l_decap_8
XFILLER_81_996 VPWR VGND sg13cmos5l_decap_8
XFILLER_80_473 VPWR VGND sg13cmos5l_decap_8
XFILLER_52_175 VPWR VGND sg13cmos5l_decap_8
XFILLER_13_518 VPWR VGND sg13cmos5l_decap_8
XFILLER_25_378 VPWR VGND sg13cmos5l_decap_8
XFILLER_40_315 VPWR VGND sg13cmos5l_decap_8
XFILLER_71_39 VPWR VGND sg13cmos5l_decap_8
XFILLER_21_595 VPWR VGND sg13cmos5l_decap_8
XFILLER_5_739 VPWR VGND sg13cmos5l_decap_8
XFILLER_106_133 VPWR VGND sg13cmos5l_decap_8
XFILLER_4_238 VPWR VGND sg13cmos5l_decap_8
XFILLER_20_32 VPWR VGND sg13cmos5l_decap_8
XFILLER_96_14 VPWR VGND sg13cmos5l_decap_8
XFILLER_1_945 VPWR VGND sg13cmos5l_decap_8
XFILLER_103_840 VPWR VGND sg13cmos5l_decap_8
XFILLER_0_455 VPWR VGND sg13cmos5l_decap_8
XFILLER_102_350 VPWR VGND sg13cmos5l_decap_8
XFILLER_76_713 VPWR VGND sg13cmos5l_decap_8
XFILLER_49_949 VPWR VGND sg13cmos5l_decap_8
XFILLER_75_223 VPWR VGND sg13cmos5l_decap_8
XFILLER_64_919 VPWR VGND sg13cmos5l_decap_8
XFILLER_48_448 VPWR VGND sg13cmos5l_decap_8
XFILLER_29_74 VPWR VGND sg13cmos5l_decap_8
XFILLER_17_802 VPWR VGND sg13cmos5l_decap_8
XFILLER_21_1022 VPWR VGND sg13cmos5l_decap_8
XFILLER_29_662 VPWR VGND sg13cmos5l_decap_8
XFILLER_91_749 VPWR VGND sg13cmos5l_decap_8
XFILLER_72_941 VPWR VGND sg13cmos5l_decap_8
XFILLER_16_301 VPWR VGND sg13cmos5l_decap_8
XFILLER_28_161 VPWR VGND sg13cmos5l_decap_8
XFILLER_44_676 VPWR VGND sg13cmos5l_decap_8
XFILLER_17_879 VPWR VGND sg13cmos5l_decap_8
XFILLER_32_816 VPWR VGND sg13cmos5l_decap_8
XFILLER_71_495 VPWR VGND sg13cmos5l_decap_8
XFILLER_45_84 VPWR VGND sg13cmos5l_decap_8
XFILLER_43_175 VPWR VGND sg13cmos5l_decap_8
XFILLER_16_378 VPWR VGND sg13cmos5l_decap_8
XFILLER_31_315 VPWR VGND sg13cmos5l_decap_8
XFILLER_8_511 VPWR VGND sg13cmos5l_decap_8
XFILLER_40_882 VPWR VGND sg13cmos5l_decap_8
XFILLER_61_83 VPWR VGND sg13cmos5l_decap_8
XFILLER_8_588 VPWR VGND sg13cmos5l_decap_8
XFILLER_6_56 VPWR VGND sg13cmos5l_decap_8
XFILLER_99_805 VPWR VGND sg13cmos5l_decap_8
XFILLER_98_326 VPWR VGND sg13cmos5l_decap_8
XFILLER_79_573 VPWR VGND sg13cmos5l_decap_8
XFILLER_20_4 VPWR VGND sg13cmos5l_decap_8
XFILLER_94_532 VPWR VGND sg13cmos5l_decap_8
XFILLER_67_768 VPWR VGND sg13cmos5l_decap_8
XFILLER_66_245 VPWR VGND sg13cmos5l_decap_8
XFILLER_39_459 VPWR VGND sg13cmos5l_decap_8
XFILLER_82_727 VPWR VGND sg13cmos5l_decap_8
XFILLER_81_226 VPWR VGND sg13cmos5l_decap_8
XFILLER_75_790 VPWR VGND sg13cmos5l_decap_8
XFILLER_19_161 VPWR VGND sg13cmos5l_decap_8
XFILLER_90_760 VPWR VGND sg13cmos5l_decap_8
XFILLER_63_952 VPWR VGND sg13cmos5l_decap_8
XFILLER_62_440 VPWR VGND sg13cmos5l_decap_8
XFILLER_23_805 VPWR VGND sg13cmos5l_decap_8
XFILLER_35_665 VPWR VGND sg13cmos5l_decap_8
XFILLER_50_602 VPWR VGND sg13cmos5l_decap_8
XFILLER_96_0 VPWR VGND sg13cmos5l_decap_8
XFILLER_22_326 VPWR VGND sg13cmos5l_decap_8
XFILLER_34_186 VPWR VGND sg13cmos5l_decap_8
XFILLER_50_679 VPWR VGND sg13cmos5l_decap_8
XFILLER_31_882 VPWR VGND sg13cmos5l_decap_8
XFILLER_30_392 VPWR VGND sg13cmos5l_decap_8
XFILLER_104_637 VPWR VGND sg13cmos5l_decap_8
XFILLER_89_315 VPWR VGND sg13cmos5l_decap_8
XFILLER_106_35 VPWR VGND sg13cmos5l_decap_8
XFILLER_103_147 VPWR VGND sg13cmos5l_decap_8
XFILLER_98_893 VPWR VGND sg13cmos5l_decap_8
XFILLER_58_702 VPWR VGND sg13cmos5l_decap_8
XFILLER_100_854 VPWR VGND sg13cmos5l_decap_8
XFILLER_97_392 VPWR VGND sg13cmos5l_decap_8
XFILLER_85_532 VPWR VGND sg13cmos5l_decap_8
XFILLER_57_245 VPWR VGND sg13cmos5l_decap_8
XFILLER_58_779 VPWR VGND sg13cmos5l_decap_8
XFILLER_17_109 VPWR VGND sg13cmos5l_decap_8
XFILLER_54_930 VPWR VGND sg13cmos5l_decap_8
XFILLER_82_27 VPWR VGND sg13cmos5l_decap_8
XFILLER_72_248 VPWR VGND sg13cmos5l_decap_8
XFILLER_14_805 VPWR VGND sg13cmos5l_decap_8
XFILLER_26_665 VPWR VGND sg13cmos5l_decap_8
XFILLER_81_793 VPWR VGND sg13cmos5l_decap_8
XFILLER_80_270 VPWR VGND sg13cmos5l_decap_8
XFILLER_53_462 VPWR VGND sg13cmos5l_decap_8
XFILLER_41_602 VPWR VGND sg13cmos5l_decap_8
XFILLER_13_315 VPWR VGND sg13cmos5l_decap_8
XFILLER_15_32 VPWR VGND sg13cmos5l_decap_8
XFILLER_25_175 VPWR VGND sg13cmos5l_decap_8
XFILLER_40_112 VPWR VGND sg13cmos5l_decap_8
XFILLER_41_679 VPWR VGND sg13cmos5l_decap_8
XFILLER_9_308 VPWR VGND sg13cmos5l_decap_8
XFILLER_51_1026 VPWR VGND sg13cmos5l_fill_2
XFILLER_22_893 VPWR VGND sg13cmos5l_decap_8
XFILLER_40_189 VPWR VGND sg13cmos5l_decap_8
XFILLER_21_392 VPWR VGND sg13cmos5l_decap_8
XFILLER_31_42 VPWR VGND sg13cmos5l_decap_8
XFILLER_5_536 VPWR VGND sg13cmos5l_decap_8
Xoutput20 uo_out[3] _43_/Y VPWR VGND sg13cmos5l_buf_1
XFILLER_96_819 VPWR VGND sg13cmos5l_decap_8
XFILLER_1_742 VPWR VGND sg13cmos5l_decap_8
XFILLER_89_882 VPWR VGND sg13cmos5l_decap_8
XFILLER_76_510 VPWR VGND sg13cmos5l_decap_8
XFILLER_0_252 VPWR VGND sg13cmos5l_decap_8
XFILLER_49_746 VPWR VGND sg13cmos5l_decap_8
XFILLER_76_587 VPWR VGND sg13cmos5l_decap_8
XFILLER_64_716 VPWR VGND sg13cmos5l_decap_8
XFILLER_48_245 VPWR VGND sg13cmos5l_decap_8
XFILLER_91_546 VPWR VGND sg13cmos5l_decap_8
XFILLER_56_83 VPWR VGND sg13cmos5l_decap_8
XFILLER_63_259 VPWR VGND sg13cmos5l_decap_8
XFILLER_45_952 VPWR VGND sg13cmos5l_decap_8
XFILLER_44_473 VPWR VGND sg13cmos5l_decap_8
XFILLER_16_175 VPWR VGND sg13cmos5l_decap_8
XFILLER_17_676 VPWR VGND sg13cmos5l_decap_8
XFILLER_32_613 VPWR VGND sg13cmos5l_decap_8
XFILLER_71_292 VPWR VGND sg13cmos5l_decap_8
XFILLER_60_944 VPWR VGND sg13cmos5l_decap_8
XFILLER_31_112 VPWR VGND sg13cmos5l_decap_8
XFILLER_13_882 VPWR VGND sg13cmos5l_decap_8
XFILLER_31_189 VPWR VGND sg13cmos5l_decap_8
XFILLER_9_875 VPWR VGND sg13cmos5l_decap_8
XFILLER_68_4 VPWR VGND sg13cmos5l_decap_8
XFILLER_8_385 VPWR VGND sg13cmos5l_decap_8
XFILLER_99_602 VPWR VGND sg13cmos5l_decap_8
XFILLER_99_679 VPWR VGND sg13cmos5l_decap_8
XFILLER_98_123 VPWR VGND sg13cmos5l_decap_8
XFILLER_87_819 VPWR VGND sg13cmos5l_decap_8
XFILLER_79_370 VPWR VGND sg13cmos5l_decap_8
XFILLER_95_830 VPWR VGND sg13cmos5l_decap_8
XFILLER_67_565 VPWR VGND sg13cmos5l_decap_8
XFILLER_11_0 VPWR VGND sg13cmos5l_decap_8
XFILLER_39_256 VPWR VGND sg13cmos5l_decap_8
XFILLER_82_524 VPWR VGND sg13cmos5l_decap_8
XFILLER_55_749 VPWR VGND sg13cmos5l_decap_8
XFILLER_70_719 VPWR VGND sg13cmos5l_decap_8
XFILLER_54_237 VPWR VGND sg13cmos5l_decap_8
XFILLER_36_952 VPWR VGND sg13cmos5l_decap_8
XFILLER_51_900 VPWR VGND sg13cmos5l_decap_8
XFILLER_23_602 VPWR VGND sg13cmos5l_decap_8
XFILLER_35_462 VPWR VGND sg13cmos5l_decap_8
XFILLER_22_123 VPWR VGND sg13cmos5l_decap_8
XFILLER_51_977 VPWR VGND sg13cmos5l_decap_8
XFILLER_50_476 VPWR VGND sg13cmos5l_decap_8
XFILLER_11_819 VPWR VGND sg13cmos5l_decap_8
XFILLER_23_679 VPWR VGND sg13cmos5l_decap_8
XFILLER_105_924 VPWR VGND sg13cmos5l_decap_8
XFILLER_89_112 VPWR VGND sg13cmos5l_decap_8
XFILLER_104_434 VPWR VGND sg13cmos5l_decap_8
XFILLER_89_189 VPWR VGND sg13cmos5l_decap_8
XFILLER_77_329 VPWR VGND sg13cmos5l_decap_8
XFILLER_77_49 VPWR VGND sg13cmos5l_decap_8
XFILLER_98_690 VPWR VGND sg13cmos5l_decap_8
XFILLER_86_830 VPWR VGND sg13cmos5l_decap_8
XFILLER_100_651 VPWR VGND sg13cmos5l_decap_8
XFILLER_58_576 VPWR VGND sg13cmos5l_decap_8
XFILLER_73_557 VPWR VGND sg13cmos5l_decap_8
XFILLER_45_259 VPWR VGND sg13cmos5l_decap_8
XFILLER_26_42 VPWR VGND sg13cmos5l_decap_8
XFILLER_27_963 VPWR VGND sg13cmos5l_decap_8
XFILLER_42_900 VPWR VGND sg13cmos5l_decap_8
XFILLER_14_602 VPWR VGND sg13cmos5l_decap_8
XFILLER_26_462 VPWR VGND sg13cmos5l_decap_8
XFILLER_81_590 VPWR VGND sg13cmos5l_decap_8
XFILLER_13_112 VPWR VGND sg13cmos5l_decap_8
XFILLER_42_977 VPWR VGND sg13cmos5l_decap_8
XFILLER_9_105 VPWR VGND sg13cmos5l_decap_8
XFILLER_14_679 VPWR VGND sg13cmos5l_decap_8
XFILLER_41_476 VPWR VGND sg13cmos5l_decap_8
XFILLER_10_830 VPWR VGND sg13cmos5l_decap_8
XFILLER_13_189 VPWR VGND sg13cmos5l_decap_8
XFILLER_42_74 VPWR VGND sg13cmos5l_decap_8
XFILLER_6_812 VPWR VGND sg13cmos5l_decap_8
XFILLER_22_690 VPWR VGND sg13cmos5l_decap_8
XFILLER_5_333 VPWR VGND sg13cmos5l_decap_8
XFILLER_6_889 VPWR VGND sg13cmos5l_decap_8
XFILLER_96_616 VPWR VGND sg13cmos5l_decap_8
XFILLER_3_35 VPWR VGND sg13cmos5l_decap_8
XFILLER_95_137 VPWR VGND sg13cmos5l_decap_8
XFILLER_67_82 VPWR VGND sg13cmos5l_decap_8
XFILLER_49_543 VPWR VGND sg13cmos5l_decap_8
XFILLER_3_1008 VPWR VGND sg13cmos5l_decap_8
XFILLER_97_1015 VPWR VGND sg13cmos5l_decap_8
XFILLER_92_833 VPWR VGND sg13cmos5l_decap_8
XFILLER_77_896 VPWR VGND sg13cmos5l_decap_8
XFILLER_76_384 VPWR VGND sg13cmos5l_decap_8
XFILLER_64_513 VPWR VGND sg13cmos5l_decap_8
XFILLER_91_343 VPWR VGND sg13cmos5l_decap_8
XFILLER_18_952 VPWR VGND sg13cmos5l_decap_8
XFILLER_36_259 VPWR VGND sg13cmos5l_decap_8
XFILLER_51_207 VPWR VGND sg13cmos5l_decap_8
XFILLER_17_473 VPWR VGND sg13cmos5l_decap_8
XFILLER_83_81 VPWR VGND sg13cmos5l_decap_8
XFILLER_60_741 VPWR VGND sg13cmos5l_decap_8
XFILLER_44_270 VPWR VGND sg13cmos5l_decap_8
XFILLER_32_410 VPWR VGND sg13cmos5l_decap_8
XFILLER_33_966 VPWR VGND sg13cmos5l_decap_8
XFILLER_20_627 VPWR VGND sg13cmos5l_decap_8
XFILLER_32_487 VPWR VGND sg13cmos5l_decap_8
XFILLER_9_672 VPWR VGND sg13cmos5l_decap_8
XFILLER_8_182 VPWR VGND sg13cmos5l_decap_8
XFILLER_102_938 VPWR VGND sg13cmos5l_decap_8
XFILLER_99_476 VPWR VGND sg13cmos5l_decap_8
XFILLER_87_616 VPWR VGND sg13cmos5l_decap_8
XFILLER_101_448 VPWR VGND sg13cmos5l_decap_8
XFILLER_86_137 VPWR VGND sg13cmos5l_decap_8
XFILLER_68_830 VPWR VGND sg13cmos5l_decap_8
XFILLER_103_14 VPWR VGND sg13cmos5l_decap_8
XFILLER_83_844 VPWR VGND sg13cmos5l_decap_8
XFILLER_67_362 VPWR VGND sg13cmos5l_decap_8
XFILLER_28_749 VPWR VGND sg13cmos5l_decap_8
XFILLER_82_321 VPWR VGND sg13cmos5l_decap_8
XFILLER_55_546 VPWR VGND sg13cmos5l_decap_8
XFILLER_70_516 VPWR VGND sg13cmos5l_decap_8
XFILLER_42_207 VPWR VGND sg13cmos5l_decap_8
XFILLER_24_900 VPWR VGND sg13cmos5l_decap_8
XFILLER_82_398 VPWR VGND sg13cmos5l_decap_8
XFILLER_51_774 VPWR VGND sg13cmos5l_decap_8
XFILLER_24_977 VPWR VGND sg13cmos5l_decap_8
XFILLER_50_273 VPWR VGND sg13cmos5l_decap_8
XFILLER_11_616 VPWR VGND sg13cmos5l_decap_8
XFILLER_23_476 VPWR VGND sg13cmos5l_decap_8
XFILLER_10_137 VPWR VGND sg13cmos5l_decap_8
XFILLER_12_11 VPWR VGND sg13cmos5l_decap_8
XFILLER_6_119 VPWR VGND sg13cmos5l_decap_8
XFILLER_12_88 VPWR VGND sg13cmos5l_decap_8
XFILLER_105_721 VPWR VGND sg13cmos5l_decap_8
XFILLER_3_826 VPWR VGND sg13cmos5l_decap_8
XFILLER_104_231 VPWR VGND sg13cmos5l_decap_8
XFILLER_2_347 VPWR VGND sg13cmos5l_decap_8
XFILLER_105_798 VPWR VGND sg13cmos5l_decap_8
XFILLER_77_126 VPWR VGND sg13cmos5l_decap_8
XFILLER_59_830 VPWR VGND sg13cmos5l_decap_8
XFILLER_58_373 VPWR VGND sg13cmos5l_decap_8
XFILLER_19_749 VPWR VGND sg13cmos5l_decap_8
XFILLER_74_866 VPWR VGND sg13cmos5l_decap_8
XFILLER_46_557 VPWR VGND sg13cmos5l_decap_8
XFILLER_18_259 VPWR VGND sg13cmos5l_decap_8
XFILLER_37_74 VPWR VGND sg13cmos5l_decap_8
XFILLER_73_354 VPWR VGND sg13cmos5l_decap_8
XFILLER_15_900 VPWR VGND sg13cmos5l_decap_8
XFILLER_27_760 VPWR VGND sg13cmos5l_decap_8
XFILLER_61_538 VPWR VGND sg13cmos5l_decap_8
XFILLER_42_774 VPWR VGND sg13cmos5l_decap_8
XFILLER_15_977 VPWR VGND sg13cmos5l_decap_8
XFILLER_30_903 VPWR VGND sg13cmos5l_decap_8
XFILLER_105_1008 VPWR VGND sg13cmos5l_decap_8
XFILLER_53_84 VPWR VGND sg13cmos5l_decap_8
XFILLER_14_476 VPWR VGND sg13cmos5l_decap_8
XFILLER_41_273 VPWR VGND sg13cmos5l_decap_8
XFILLER_5_130 VPWR VGND sg13cmos5l_decap_8
XFILLER_52_7 VPWR VGND sg13cmos5l_decap_8
XFILLER_6_686 VPWR VGND sg13cmos5l_decap_8
XFILLER_97_903 VPWR VGND sg13cmos5l_decap_8
XFILLER_64_1003 VPWR VGND sg13cmos5l_decap_8
XFILLER_96_413 VPWR VGND sg13cmos5l_decap_8
XFILLER_69_638 VPWR VGND sg13cmos5l_decap_8
XFILLER_68_137 VPWR VGND sg13cmos5l_decap_8
XFILLER_65_800 VPWR VGND sg13cmos5l_decap_8
XFILLER_49_340 VPWR VGND sg13cmos5l_decap_8
XFILLER_77_693 VPWR VGND sg13cmos5l_decap_8
XFILLER_64_310 VPWR VGND sg13cmos5l_decap_8
XFILLER_92_630 VPWR VGND sg13cmos5l_decap_8
X_65_ _65_/Y _65_/A _65_/B VPWR VGND sg13cmos5l_xnor2_1
XFILLER_76_181 VPWR VGND sg13cmos5l_decap_8
XFILLER_37_557 VPWR VGND sg13cmos5l_decap_8
XFILLER_94_91 VPWR VGND sg13cmos5l_decap_8
XFILLER_91_140 VPWR VGND sg13cmos5l_decap_8
XFILLER_65_877 VPWR VGND sg13cmos5l_decap_8
XFILLER_24_207 VPWR VGND sg13cmos5l_decap_8
XFILLER_80_858 VPWR VGND sg13cmos5l_decap_8
XFILLER_64_387 VPWR VGND sg13cmos5l_decap_8
XFILLER_17_270 VPWR VGND sg13cmos5l_decap_8
XFILLER_21_903 VPWR VGND sg13cmos5l_decap_8
XFILLER_33_763 VPWR VGND sg13cmos5l_decap_8
XFILLER_20_424 VPWR VGND sg13cmos5l_decap_8
XFILLER_32_284 VPWR VGND sg13cmos5l_decap_8
XFILLER_106_518 VPWR VGND sg13cmos5l_decap_8
XFILLER_88_914 VPWR VGND sg13cmos5l_decap_8
XFILLER_102_735 VPWR VGND sg13cmos5l_decap_8
XFILLER_99_273 VPWR VGND sg13cmos5l_decap_8
XFILLER_87_413 VPWR VGND sg13cmos5l_decap_8
XFILLER_59_137 VPWR VGND sg13cmos5l_decap_8
XFILLER_101_245 VPWR VGND sg13cmos5l_decap_8
XFILLER_75_608 VPWR VGND sg13cmos5l_decap_8
XFILLER_96_980 VPWR VGND sg13cmos5l_decap_8
XFILLER_56_811 VPWR VGND sg13cmos5l_decap_8
XFILLER_83_641 VPWR VGND sg13cmos5l_decap_8
XFILLER_74_28 VPWR VGND sg13cmos5l_decap_8
XFILLER_55_343 VPWR VGND sg13cmos5l_decap_8
XFILLER_28_546 VPWR VGND sg13cmos5l_decap_8
XFILLER_71_803 VPWR VGND sg13cmos5l_decap_8
XFILLER_56_888 VPWR VGND sg13cmos5l_decap_8
XFILLER_15_207 VPWR VGND sg13cmos5l_decap_8
XFILLER_82_195 VPWR VGND sg13cmos5l_decap_8
XFILLER_70_313 VPWR VGND sg13cmos5l_decap_8
XFILLER_12_914 VPWR VGND sg13cmos5l_decap_8
XFILLER_51_571 VPWR VGND sg13cmos5l_decap_8
XFILLER_11_413 VPWR VGND sg13cmos5l_decap_8
XFILLER_23_21 VPWR VGND sg13cmos5l_decap_8
XFILLER_23_273 VPWR VGND sg13cmos5l_decap_8
XFILLER_24_774 VPWR VGND sg13cmos5l_decap_8
XFILLER_7_417 VPWR VGND sg13cmos5l_decap_8
XFILLER_99_14 VPWR VGND sg13cmos5l_decap_8
XFILLER_20_991 VPWR VGND sg13cmos5l_decap_8
XFILLER_23_98 VPWR VGND sg13cmos5l_decap_8
XFILLER_3_623 VPWR VGND sg13cmos5l_decap_8
XFILLER_2_144 VPWR VGND sg13cmos5l_decap_8
XFILLER_105_595 VPWR VGND sg13cmos5l_decap_8
XFILLER_79_958 VPWR VGND sg13cmos5l_decap_8
XFILLER_94_917 VPWR VGND sg13cmos5l_decap_8
XFILLER_78_468 VPWR VGND sg13cmos5l_decap_8
XFILLER_93_438 VPWR VGND sg13cmos5l_decap_8
XFILLER_87_980 VPWR VGND sg13cmos5l_decap_8