* NGSPICE file created from heichips26_example_small.ext - technology: ihp-sg13cmos5l

* Black-box entry subcircuit for sg13cmos5l_decap_8 abstract view
.subckt sg13cmos5l_decap_8 VDD VSS
.ends

* Black-box entry subcircuit for sg13cmos5l_fill_2 abstract view
.subckt sg13cmos5l_fill_2 VDD VSS
.ends

* Black-box entry subcircuit for sg13cmos5l_tielo abstract view
.subckt sg13cmos5l_tielo L_LO VDD VSS
.ends

* Black-box entry subcircuit for sg13cmos5l_inv_1 abstract view
.subckt sg13cmos5l_inv_1 Y A VDD VSS
.ends

* Black-box entry subcircuit for sg13cmos5l_buf_1 abstract view
.subckt sg13cmos5l_buf_1 X A VDD VSS
.ends

* Black-box entry subcircuit for sg13cmos5l_xnor2_1 abstract view
.subckt sg13cmos5l_xnor2_1 Y A B VDD VSS
.ends

* Black-box entry subcircuit for sg13cmos5l_xor2_1 abstract view
.subckt sg13cmos5l_xor2_1 X A B VDD VSS
.ends

* Black-box entry subcircuit for sg13cmos5l_fill_1 abstract view
.subckt sg13cmos5l_fill_1 VDD VSS
.ends

* Black-box entry subcircuit for sg13cmos5l_nand2_1 abstract view
.subckt sg13cmos5l_nand2_1 Y A B VDD VSS
.ends

* Black-box entry subcircuit for sg13cmos5l_decap_4 abstract view
.subckt sg13cmos5l_decap_4 VDD VSS
.ends

* Black-box entry subcircuit for sg13cmos5l_o21ai_1 abstract view
.subckt sg13cmos5l_o21ai_1 Y A1 A2 B1 VDD VSS
.ends

* Black-box entry subcircuit for sg13cmos5l_and2_1 abstract view
.subckt sg13cmos5l_and2_1 X A B VDD VSS
.ends

* Black-box entry subcircuit for sg13cmos5l_a21oi_1 abstract view
.subckt sg13cmos5l_a21oi_1 Y A1 A2 B1 VDD VSS
.ends

* Black-box entry subcircuit for sg13cmos5l_nand2b_1 abstract view
.subckt sg13cmos5l_nand2b_1 Y A_N B VDD VSS
.ends

* Black-box entry subcircuit for sg13cmos5l_nor2_1 abstract view
.subckt sg13cmos5l_nor2_1 Y A B VDD VSS
.ends

* Black-box entry subcircuit for sg13cmos5l_a221oi_1 abstract view
.subckt sg13cmos5l_a221oi_1 Y A1 A2 B1 B2 C1 VDD VSS
.ends

* Black-box entry subcircuit for sg13cmos5l_or2_1 abstract view
.subckt sg13cmos5l_or2_1 X A B VDD VSS
.ends

.subckt heichips26_example_small VGND VPWR clk ena rst_n ui_in[0] ui_in[1] ui_in[2]
+ ui_in[3] ui_in[4] ui_in[5] ui_in[6] ui_in[7] uio_in[0] uio_in[1] uio_in[2] uio_in[3]
+ uio_in[4] uio_in[5] uio_in[6] uio_in[7] uio_oe[0] uio_oe[1] uio_oe[2] uio_oe[3]
+ uio_oe[4] uio_oe[5] uio_oe[6] uio_oe[7] uio_out[0] uio_out[1] uio_out[2] uio_out[3]
+ uio_out[4] uio_out[5] uio_out[6] uio_out[7] uo_out[0] uo_out[1] uo_out[2] uo_out[3]
+ uo_out[4] uo_out[5] uo_out[6] uo_out[7]
XFILLER_27_406 VPWR VGND sg13cmos5l_decap_8
XFILLER_28_929 VPWR VGND sg13cmos5l_decap_8
XFILLER_39_277 VPWR VGND sg13cmos5l_decap_8
XFILLER_36_940 VPWR VGND sg13cmos5l_decap_8
XFILLER_22_111 VPWR VGND sg13cmos5l_decap_8
XFILLER_23_634 VPWR VGND sg13cmos5l_decap_8
XFILLER_22_188 VPWR VGND sg13cmos5l_decap_8
XFILLER_7_7 VPWR VGND sg13cmos5l_decap_8
XFILLER_19_907 VPWR VGND sg13cmos5l_decap_8
XFILLER_18_417 VPWR VGND sg13cmos5l_decap_8
XFILLER_45_214 VPWR VGND sg13cmos5l_decap_8
XFILLER_27_973 VPWR VGND sg13cmos5l_decap_8
XFILLER_42_943 VPWR VGND sg13cmos5l_decap_8
XFILLER_41_442 VPWR VGND sg13cmos5l_decap_8
XFILLER_14_634 VPWR VGND sg13cmos5l_decap_8
XFILLER_26_96 VPWR VGND sg13cmos5l_decap_8
XFILLER_13_144 VPWR VGND sg13cmos5l_decap_8
XFILLER_42_40 VPWR VGND sg13cmos5l_decap_8
XFILLER_9_137 VPWR VGND sg13cmos5l_decap_8
XFILLER_10_851 VPWR VGND sg13cmos5l_decap_8
XFILLER_6_844 VPWR VGND sg13cmos5l_decap_8
XFILLER_5_354 VPWR VGND sg13cmos5l_decap_8
XFILLER_1_560 VPWR VGND sg13cmos5l_decap_8
XFILLER_3_67 VPWR VGND sg13cmos5l_decap_8
XFILLER_49_553 VPWR VGND sg13cmos5l_decap_8
XFILLER_37_748 VPWR VGND sg13cmos5l_decap_8
XFILLER_24_409 VPWR VGND sg13cmos5l_decap_8
XFILLER_36_247 VPWR VGND sg13cmos5l_decap_8
XFILLER_45_781 VPWR VGND sg13cmos5l_decap_8
XFILLER_17_483 VPWR VGND sg13cmos5l_decap_8
XFILLER_18_984 VPWR VGND sg13cmos5l_decap_8
XFILLER_44_291 VPWR VGND sg13cmos5l_decap_8
XFILLER_32_442 VPWR VGND sg13cmos5l_decap_8
XFILLER_33_954 VPWR VGND sg13cmos5l_decap_8
XFILLER_20_648 VPWR VGND sg13cmos5l_decap_8
XFILLER_41_1002 VPWR VGND sg13cmos5l_decap_8
XFILLER_27_203 VPWR VGND sg13cmos5l_decap_8
XFILLER_28_726 VPWR VGND sg13cmos5l_decap_8
XFILLER_23_431 VPWR VGND sg13cmos5l_decap_8
XFILLER_24_976 VPWR VGND sg13cmos5l_decap_8
XFILLER_11_648 VPWR VGND sg13cmos5l_decap_8
XFILLER_10_158 VPWR VGND sg13cmos5l_decap_8
XFILLER_12_32 VPWR VGND sg13cmos5l_decap_8
XFILLER_5_4 VPWR VGND sg13cmos5l_decap_8
XFILLER_3_858 VPWR VGND sg13cmos5l_decap_8
XFILLER_2_368 VPWR VGND sg13cmos5l_decap_8
XFILLER_19_704 VPWR VGND sg13cmos5l_decap_8
XFILLER_18_214 VPWR VGND sg13cmos5l_decap_8
XFILLER_46_567 VPWR VGND sg13cmos5l_decap_8
XFILLER_15_921 VPWR VGND sg13cmos5l_decap_8
XFILLER_27_770 VPWR VGND sg13cmos5l_decap_8
XFILLER_42_740 VPWR VGND sg13cmos5l_decap_8
XFILLER_14_431 VPWR VGND sg13cmos5l_decap_8
XFILLER_15_998 VPWR VGND sg13cmos5l_decap_8
XFILLER_18_1026 VPWR VGND sg13cmos5l_fill_2
XFILLER_30_924 VPWR VGND sg13cmos5l_decap_8
XFILLER_6_641 VPWR VGND sg13cmos5l_decap_8
XFILLER_5_151 VPWR VGND sg13cmos5l_decap_8
XFILLER_38_4 VPWR VGND sg13cmos5l_decap_8
XFILLER_49_350 VPWR VGND sg13cmos5l_decap_8
XFILLER_37_545 VPWR VGND sg13cmos5l_decap_8
XFILLER_18_781 VPWR VGND sg13cmos5l_decap_8
XFILLER_24_206 VPWR VGND sg13cmos5l_decap_8
XFILLER_25_729 VPWR VGND sg13cmos5l_decap_8
XFILLER_17_280 VPWR VGND sg13cmos5l_decap_8
XFILLER_33_751 VPWR VGND sg13cmos5l_decap_8
XFILLER_21_935 VPWR VGND sg13cmos5l_decap_8
XFILLER_20_445 VPWR VGND sg13cmos5l_decap_8
Xheichips26_example_small_34 uio_out[2] VPWR VGND sg13cmos5l_tielo
XFILLER_28_523 VPWR VGND sg13cmos5l_decap_8
XFILLER_16_718 VPWR VGND sg13cmos5l_decap_8
XFILLER_43_559 VPWR VGND sg13cmos5l_decap_8
XFILLER_15_228 VPWR VGND sg13cmos5l_decap_8
XFILLER_24_773 VPWR VGND sg13cmos5l_decap_8
XFILLER_12_935 VPWR VGND sg13cmos5l_decap_8
XFILLER_8_928 VPWR VGND sg13cmos5l_decap_8
XFILLER_11_445 VPWR VGND sg13cmos5l_decap_8
XFILLER_23_53 VPWR VGND sg13cmos5l_decap_8
XFILLER_7_427 VPWR VGND sg13cmos5l_decap_8
XFILLER_48_1008 VPWR VGND sg13cmos5l_decap_8
XFILLER_3_655 VPWR VGND sg13cmos5l_decap_8
XFILLER_2_165 VPWR VGND sg13cmos5l_decap_8
XFILLER_19_501 VPWR VGND sg13cmos5l_decap_8
XFILLER_47_854 VPWR VGND sg13cmos5l_decap_8
XFILLER_0_35 VPWR VGND sg13cmos5l_decap_8
XFILLER_46_364 VPWR VGND sg13cmos5l_decap_8
XFILLER_19_578 VPWR VGND sg13cmos5l_decap_8
XFILLER_34_559 VPWR VGND sg13cmos5l_decap_8
XFILLER_9_11 VPWR VGND sg13cmos5l_decap_8
XFILLER_15_795 VPWR VGND sg13cmos5l_decap_8
XFILLER_30_721 VPWR VGND sg13cmos5l_decap_8
XFILLER_9_88 VPWR VGND sg13cmos5l_decap_8
XFILLER_30_798 VPWR VGND sg13cmos5l_decap_8
XFILLER_7_994 VPWR VGND sg13cmos5l_decap_8
XFILLER_37_342 VPWR VGND sg13cmos5l_decap_8
XFILLER_38_854 VPWR VGND sg13cmos5l_decap_8
X_49_ _56_/A _50_/B VPWR VGND sg13cmos5l_inv_1
XFILLER_25_526 VPWR VGND sg13cmos5l_decap_8
XFILLER_40_518 VPWR VGND sg13cmos5l_decap_8
XFILLER_21_732 VPWR VGND sg13cmos5l_decap_8
XFILLER_20_242 VPWR VGND sg13cmos5l_decap_8
XFILLER_0_658 VPWR VGND sg13cmos5l_decap_8
XFILLER_29_821 VPWR VGND sg13cmos5l_decap_8
XFILLER_18_53 VPWR VGND sg13cmos5l_decap_8
XFILLER_28_320 VPWR VGND sg13cmos5l_decap_8
XFILLER_44_802 VPWR VGND sg13cmos5l_decap_8
XFILLER_16_515 VPWR VGND sg13cmos5l_decap_8
XFILLER_29_898 VPWR VGND sg13cmos5l_decap_8
XFILLER_28_397 VPWR VGND sg13cmos5l_decap_8
XFILLER_44_879 VPWR VGND sg13cmos5l_decap_8
XFILLER_43_356 VPWR VGND sg13cmos5l_decap_8
XFILLER_24_570 VPWR VGND sg13cmos5l_decap_8
XFILLER_12_732 VPWR VGND sg13cmos5l_decap_8
XFILLER_8_725 VPWR VGND sg13cmos5l_decap_8
XFILLER_11_242 VPWR VGND sg13cmos5l_decap_8
XFILLER_7_224 VPWR VGND sg13cmos5l_decap_8
XFILLER_4_942 VPWR VGND sg13cmos5l_decap_8
XFILLER_3_452 VPWR VGND sg13cmos5l_decap_8
XFILLER_47_651 VPWR VGND sg13cmos5l_decap_8
XFILLER_19_375 VPWR VGND sg13cmos5l_decap_8
XFILLER_35_824 VPWR VGND sg13cmos5l_decap_8
XFILLER_46_161 VPWR VGND sg13cmos5l_decap_8
XFILLER_34_356 VPWR VGND sg13cmos5l_decap_8
XFILLER_15_592 VPWR VGND sg13cmos5l_decap_8
XFILLER_30_595 VPWR VGND sg13cmos5l_decap_8
XFILLER_7_791 VPWR VGND sg13cmos5l_decap_8
XFILLER_29_128 VPWR VGND sg13cmos5l_decap_8
XFILLER_44_109 VPWR VGND sg13cmos5l_decap_8
XFILLER_26_824 VPWR VGND sg13cmos5l_decap_8
XFILLER_38_651 VPWR VGND sg13cmos5l_decap_8
XFILLER_25_323 VPWR VGND sg13cmos5l_decap_8
XFILLER_41_827 VPWR VGND sg13cmos5l_decap_8
XFILLER_13_529 VPWR VGND sg13cmos5l_decap_8
XFILLER_40_315 VPWR VGND sg13cmos5l_decap_8
XFILLER_5_739 VPWR VGND sg13cmos5l_decap_8
XFILLER_4_249 VPWR VGND sg13cmos5l_decap_8
XFILLER_20_32 VPWR VGND sg13cmos5l_decap_8
XFILLER_1_945 VPWR VGND sg13cmos5l_decap_8
XFILLER_0_455 VPWR VGND sg13cmos5l_decap_8
XFILLER_49_938 VPWR VGND sg13cmos5l_decap_8
XFILLER_29_41 VPWR VGND sg13cmos5l_decap_8
XFILLER_48_448 VPWR VGND sg13cmos5l_decap_8
XFILLER_16_312 VPWR VGND sg13cmos5l_decap_8
XFILLER_29_695 VPWR VGND sg13cmos5l_decap_8
XFILLER_44_676 VPWR VGND sg13cmos5l_decap_8
XFILLER_17_868 VPWR VGND sg13cmos5l_decap_8
XFILLER_28_194 VPWR VGND sg13cmos5l_decap_8
XFILLER_45_95 VPWR VGND sg13cmos5l_decap_8
XFILLER_43_153 VPWR VGND sg13cmos5l_decap_8
XFILLER_16_389 VPWR VGND sg13cmos5l_decap_8
XFILLER_32_827 VPWR VGND sg13cmos5l_decap_8
XFILLER_25_890 VPWR VGND sg13cmos5l_decap_8
XFILLER_31_348 VPWR VGND sg13cmos5l_decap_8
XFILLER_8_522 VPWR VGND sg13cmos5l_decap_8
XFILLER_40_882 VPWR VGND sg13cmos5l_decap_8
XFILLER_8_599 VPWR VGND sg13cmos5l_decap_8
XFILLER_6_67 VPWR VGND sg13cmos5l_decap_8
XFILLER_6_1005 VPWR VGND sg13cmos5l_decap_8
XFILLER_20_4 VPWR VGND sg13cmos5l_decap_8
XFILLER_39_459 VPWR VGND sg13cmos5l_decap_8
XFILLER_19_172 VPWR VGND sg13cmos5l_decap_8
XFILLER_35_621 VPWR VGND sg13cmos5l_decap_8
XFILLER_23_816 VPWR VGND sg13cmos5l_decap_8
XFILLER_34_153 VPWR VGND sg13cmos5l_decap_8
XFILLER_35_698 VPWR VGND sg13cmos5l_decap_8
XFILLER_30_392 VPWR VGND sg13cmos5l_decap_8
XFILLER_26_621 VPWR VGND sg13cmos5l_decap_8
XFILLER_25_120 VPWR VGND sg13cmos5l_decap_8
XFILLER_41_624 VPWR VGND sg13cmos5l_decap_8
XFILLER_14_816 VPWR VGND sg13cmos5l_decap_8
XFILLER_15_32 VPWR VGND sg13cmos5l_decap_8
XFILLER_26_698 VPWR VGND sg13cmos5l_decap_8
XFILLER_13_326 VPWR VGND sg13cmos5l_decap_8
XFILLER_25_197 VPWR VGND sg13cmos5l_decap_8
XFILLER_40_112 VPWR VGND sg13cmos5l_decap_8
XFILLER_9_319 VPWR VGND sg13cmos5l_decap_8
XFILLER_22_860 VPWR VGND sg13cmos5l_decap_8
XFILLER_40_189 VPWR VGND sg13cmos5l_decap_8
XFILLER_5_536 VPWR VGND sg13cmos5l_decap_8
XFILLER_31_64 VPWR VGND sg13cmos5l_decap_8
Xoutput20 uo_out[3] _43_/Y VPWR VGND sg13cmos5l_buf_1
XFILLER_1_742 VPWR VGND sg13cmos5l_decap_8
XFILLER_0_252 VPWR VGND sg13cmos5l_decap_8
XFILLER_49_735 VPWR VGND sg13cmos5l_decap_8
XFILLER_48_245 VPWR VGND sg13cmos5l_decap_8
XFILLER_36_429 VPWR VGND sg13cmos5l_decap_8
XFILLER_45_963 VPWR VGND sg13cmos5l_decap_8
XFILLER_17_665 VPWR VGND sg13cmos5l_decap_8
XFILLER_29_492 VPWR VGND sg13cmos5l_decap_8
XFILLER_44_473 VPWR VGND sg13cmos5l_decap_8
XFILLER_32_624 VPWR VGND sg13cmos5l_decap_8
XFILLER_16_186 VPWR VGND sg13cmos5l_decap_8
XFILLER_31_145 VPWR VGND sg13cmos5l_decap_8
XFILLER_13_893 VPWR VGND sg13cmos5l_decap_8
XFILLER_9_886 VPWR VGND sg13cmos5l_decap_8
XFILLER_8_396 VPWR VGND sg13cmos5l_decap_8
XFILLER_28_1006 VPWR VGND sg13cmos5l_decap_8
XFILLER_28_908 VPWR VGND sg13cmos5l_decap_8
XFILLER_39_256 VPWR VGND sg13cmos5l_decap_8
XFILLER_23_613 VPWR VGND sg13cmos5l_decap_8
XFILLER_36_996 VPWR VGND sg13cmos5l_decap_8
XFILLER_35_495 VPWR VGND sg13cmos5l_decap_8
XFILLER_22_167 VPWR VGND sg13cmos5l_decap_8
XFILLER_46_749 VPWR VGND sg13cmos5l_decap_8
XFILLER_27_952 VPWR VGND sg13cmos5l_decap_8
XFILLER_42_922 VPWR VGND sg13cmos5l_decap_8
XFILLER_14_613 VPWR VGND sg13cmos5l_decap_8
XFILLER_26_75 VPWR VGND sg13cmos5l_decap_8
XFILLER_41_421 VPWR VGND sg13cmos5l_decap_8
XFILLER_13_123 VPWR VGND sg13cmos5l_decap_8
XFILLER_26_495 VPWR VGND sg13cmos5l_decap_8
XFILLER_42_999 VPWR VGND sg13cmos5l_decap_8
XFILLER_9_116 VPWR VGND sg13cmos5l_decap_8
XFILLER_41_498 VPWR VGND sg13cmos5l_decap_8
XFILLER_10_830 VPWR VGND sg13cmos5l_decap_8
XFILLER_42_96 VPWR VGND sg13cmos5l_decap_8
XFILLER_6_823 VPWR VGND sg13cmos5l_decap_8
XFILLER_5_333 VPWR VGND sg13cmos5l_decap_8
XFILLER_3_46 VPWR VGND sg13cmos5l_decap_8
XFILLER_49_532 VPWR VGND sg13cmos5l_decap_8
XFILLER_3_1019 VPWR VGND sg13cmos5l_decap_8
XFILLER_36_226 VPWR VGND sg13cmos5l_decap_8
XFILLER_37_727 VPWR VGND sg13cmos5l_decap_8
XFILLER_18_963 VPWR VGND sg13cmos5l_decap_8
XFILLER_45_760 VPWR VGND sg13cmos5l_decap_8
XFILLER_17_462 VPWR VGND sg13cmos5l_decap_8
XFILLER_44_270 VPWR VGND sg13cmos5l_decap_8
XFILLER_32_421 VPWR VGND sg13cmos5l_decap_8
XFILLER_33_933 VPWR VGND sg13cmos5l_decap_8
XFILLER_20_627 VPWR VGND sg13cmos5l_decap_8
XFILLER_32_498 VPWR VGND sg13cmos5l_decap_8
XFILLER_34_1021 VPWR VGND sg13cmos5l_decap_8
XFILLER_13_690 VPWR VGND sg13cmos5l_decap_8
XFILLER_9_683 VPWR VGND sg13cmos5l_decap_8
XFILLER_8_193 VPWR VGND sg13cmos5l_decap_8
XFILLER_28_705 VPWR VGND sg13cmos5l_decap_8
XFILLER_27_259 VPWR VGND sg13cmos5l_decap_8
XFILLER_42_229 VPWR VGND sg13cmos5l_decap_8
XFILLER_23_410 VPWR VGND sg13cmos5l_decap_8
XFILLER_24_955 VPWR VGND sg13cmos5l_decap_8
XFILLER_35_292 VPWR VGND sg13cmos5l_decap_8
XFILLER_36_793 VPWR VGND sg13cmos5l_decap_8
XFILLER_11_627 VPWR VGND sg13cmos5l_decap_8
XFILLER_23_487 VPWR VGND sg13cmos5l_decap_8
XFILLER_10_137 VPWR VGND sg13cmos5l_decap_8
XFILLER_7_609 VPWR VGND sg13cmos5l_decap_8
XFILLER_12_11 VPWR VGND sg13cmos5l_decap_8
XFILLER_12_88 VPWR VGND sg13cmos5l_decap_8
XFILLER_3_837 VPWR VGND sg13cmos5l_decap_8
XFILLER_2_347 VPWR VGND sg13cmos5l_decap_8
XFILLER_46_546 VPWR VGND sg13cmos5l_decap_8
XFILLER_37_63 VPWR VGND sg13cmos5l_decap_8
XFILLER_15_900 VPWR VGND sg13cmos5l_decap_8
XFILLER_14_410 VPWR VGND sg13cmos5l_decap_8
XFILLER_15_977 VPWR VGND sg13cmos5l_decap_8
XFILLER_18_1005 VPWR VGND sg13cmos5l_decap_8
XFILLER_26_292 VPWR VGND sg13cmos5l_decap_8
XFILLER_30_903 VPWR VGND sg13cmos5l_decap_8
XFILLER_42_796 VPWR VGND sg13cmos5l_decap_8
XFILLER_14_487 VPWR VGND sg13cmos5l_decap_8
XFILLER_41_295 VPWR VGND sg13cmos5l_decap_8
XFILLER_6_620 VPWR VGND sg13cmos5l_decap_8
XFILLER_5_130 VPWR VGND sg13cmos5l_decap_8
XFILLER_6_697 VPWR VGND sg13cmos5l_decap_8
XFILLER_25_1009 VPWR VGND sg13cmos5l_decap_8
XFILLER_37_524 VPWR VGND sg13cmos5l_decap_8
X_65_ _65_/Y _65_/A _65_/B VPWR VGND sg13cmos5l_xnor2_1
XFILLER_25_708 VPWR VGND sg13cmos5l_decap_8
XFILLER_18_760 VPWR VGND sg13cmos5l_decap_8
XFILLER_33_730 VPWR VGND sg13cmos5l_decap_8
XFILLER_21_914 VPWR VGND sg13cmos5l_decap_8
XFILLER_20_424 VPWR VGND sg13cmos5l_decap_8
XFILLER_32_295 VPWR VGND sg13cmos5l_decap_8
XFILLER_9_480 VPWR VGND sg13cmos5l_decap_8
Xheichips26_example_small_35 uio_out[3] VPWR VGND sg13cmos5l_tielo
XFILLER_28_502 VPWR VGND sg13cmos5l_decap_8
XFILLER_15_207 VPWR VGND sg13cmos5l_decap_8
XFILLER_28_579 VPWR VGND sg13cmos5l_decap_8
XFILLER_43_538 VPWR VGND sg13cmos5l_decap_8
XFILLER_36_590 VPWR VGND sg13cmos5l_decap_8
XFILLER_12_914 VPWR VGND sg13cmos5l_decap_8
XFILLER_24_752 VPWR VGND sg13cmos5l_decap_8
XFILLER_11_424 VPWR VGND sg13cmos5l_decap_8
XFILLER_8_907 VPWR VGND sg13cmos5l_decap_8
XFILLER_7_406 VPWR VGND sg13cmos5l_decap_8
XFILLER_23_32 VPWR VGND sg13cmos5l_decap_8
XFILLER_23_284 VPWR VGND sg13cmos5l_decap_8
XFILLER_20_991 VPWR VGND sg13cmos5l_decap_8
XFILLER_3_634 VPWR VGND sg13cmos5l_decap_8
XFILLER_2_144 VPWR VGND sg13cmos5l_decap_8
XFILLER_47_833 VPWR VGND sg13cmos5l_decap_8
XFILLER_48_84 VPWR VGND sg13cmos5l_decap_8
XFILLER_46_343 VPWR VGND sg13cmos5l_decap_8
XFILLER_0_14 VPWR VGND sg13cmos5l_decap_8
XFILLER_19_557 VPWR VGND sg13cmos5l_decap_8
XFILLER_34_538 VPWR VGND sg13cmos5l_decap_8
XFILLER_15_774 VPWR VGND sg13cmos5l_decap_8
XFILLER_30_700 VPWR VGND sg13cmos5l_decap_8
XFILLER_42_593 VPWR VGND sg13cmos5l_decap_8
XFILLER_9_67 VPWR VGND sg13cmos5l_decap_8
XFILLER_14_284 VPWR VGND sg13cmos5l_decap_8
XFILLER_30_777 VPWR VGND sg13cmos5l_decap_8
XFILLER_31_1013 VPWR VGND sg13cmos5l_decap_8
XFILLER_11_991 VPWR VGND sg13cmos5l_decap_8
XFILLER_7_973 VPWR VGND sg13cmos5l_decap_8
XFILLER_6_494 VPWR VGND sg13cmos5l_decap_8
XFILLER_37_321 VPWR VGND sg13cmos5l_decap_8
XFILLER_38_833 VPWR VGND sg13cmos5l_decap_8
XFILLER_25_505 VPWR VGND sg13cmos5l_decap_8
X_48_ _50_/B _48_/A _48_/B VPWR VGND sg13cmos5l_xor2_1
XFILLER_37_398 VPWR VGND sg13cmos5l_decap_8
XFILLER_21_711 VPWR VGND sg13cmos5l_decap_8
XFILLER_20_221 VPWR VGND sg13cmos5l_decap_8
XFILLER_21_788 VPWR VGND sg13cmos5l_decap_8
XFILLER_20_298 VPWR VGND sg13cmos5l_decap_8
XFILLER_0_637 VPWR VGND sg13cmos5l_decap_8
XFILLER_29_800 VPWR VGND sg13cmos5l_decap_8
XFILLER_18_32 VPWR VGND sg13cmos5l_decap_8
XFILLER_29_877 VPWR VGND sg13cmos5l_decap_8
XFILLER_44_858 VPWR VGND sg13cmos5l_decap_8
XFILLER_43_335 VPWR VGND sg13cmos5l_decap_8
XFILLER_28_376 VPWR VGND sg13cmos5l_decap_8
XFILLER_34_31 VPWR VGND sg13cmos5l_fill_1
XFILLER_12_711 VPWR VGND sg13cmos5l_decap_8
XFILLER_8_704 VPWR VGND sg13cmos5l_decap_8
XFILLER_11_221 VPWR VGND sg13cmos5l_decap_8
XFILLER_15_1019 VPWR VGND sg13cmos5l_decap_8
XFILLER_34_97 VPWR VGND sg13cmos5l_decap_8
XFILLER_7_203 VPWR VGND sg13cmos5l_decap_8
XFILLER_12_788 VPWR VGND sg13cmos5l_decap_8
XFILLER_11_298 VPWR VGND sg13cmos5l_decap_8
XFILLER_4_921 VPWR VGND sg13cmos5l_decap_8
XFILLER_3_431 VPWR VGND sg13cmos5l_decap_8
XFILLER_4_998 VPWR VGND sg13cmos5l_decap_8
XFILLER_47_630 VPWR VGND sg13cmos5l_decap_8
XFILLER_46_140 VPWR VGND sg13cmos5l_decap_8
XFILLER_19_354 VPWR VGND sg13cmos5l_decap_8
XFILLER_35_803 VPWR VGND sg13cmos5l_decap_8
XFILLER_34_335 VPWR VGND sg13cmos5l_decap_8
XFILLER_15_571 VPWR VGND sg13cmos5l_decap_8
XFILLER_42_390 VPWR VGND sg13cmos5l_decap_8
XFILLER_30_574 VPWR VGND sg13cmos5l_decap_8
XFILLER_7_770 VPWR VGND sg13cmos5l_decap_8
XFILLER_6_291 VPWR VGND sg13cmos5l_decap_8
XFILLER_29_107 VPWR VGND sg13cmos5l_decap_8
XFILLER_38_630 VPWR VGND sg13cmos5l_decap_8
XFILLER_26_803 VPWR VGND sg13cmos5l_decap_8
XFILLER_25_302 VPWR VGND sg13cmos5l_decap_8
XFILLER_41_806 VPWR VGND sg13cmos5l_decap_8
XFILLER_37_195 VPWR VGND sg13cmos5l_decap_8
XFILLER_38_1008 VPWR VGND sg13cmos5l_decap_8
XFILLER_13_508 VPWR VGND sg13cmos5l_decap_8
XFILLER_25_379 VPWR VGND sg13cmos5l_decap_8
XFILLER_21_585 VPWR VGND sg13cmos5l_decap_8
XFILLER_5_718 VPWR VGND sg13cmos5l_decap_8
XFILLER_4_228 VPWR VGND sg13cmos5l_decap_8
XFILLER_20_11 VPWR VGND sg13cmos5l_decap_8
XFILLER_1_924 VPWR VGND sg13cmos5l_decap_8
XFILLER_20_88 VPWR VGND sg13cmos5l_decap_8
XFILLER_49_917 VPWR VGND sg13cmos5l_decap_8
XFILLER_0_434 VPWR VGND sg13cmos5l_decap_8
XFILLER_48_427 VPWR VGND sg13cmos5l_decap_8
XFILLER_29_86 VPWR VGND sg13cmos5l_decap_8
XFILLER_21_1012 VPWR VGND sg13cmos5l_decap_8
XFILLER_29_674 VPWR VGND sg13cmos5l_decap_8
XFILLER_17_847 VPWR VGND sg13cmos5l_decap_8
XFILLER_28_173 VPWR VGND sg13cmos5l_decap_8
XFILLER_45_74 VPWR VGND sg13cmos5l_decap_8
XFILLER_44_655 VPWR VGND sg13cmos5l_decap_8
XFILLER_43_132 VPWR VGND sg13cmos5l_decap_8
XFILLER_32_806 VPWR VGND sg13cmos5l_decap_8
XFILLER_16_368 VPWR VGND sg13cmos5l_decap_8
XFILLER_31_327 VPWR VGND sg13cmos5l_decap_8
XFILLER_8_501 VPWR VGND sg13cmos5l_decap_8
XFILLER_40_861 VPWR VGND sg13cmos5l_decap_8
XFILLER_12_585 VPWR VGND sg13cmos5l_decap_8
XFILLER_8_578 VPWR VGND sg13cmos5l_decap_8
XFILLER_6_46 VPWR VGND sg13cmos5l_decap_8
XFILLER_4_795 VPWR VGND sg13cmos5l_decap_8
XFILLER_6_1028 VPWR VGND sg13cmos5l_fill_1
XFILLER_13_4 VPWR VGND sg13cmos5l_decap_8
XFILLER_39_438 VPWR VGND sg13cmos5l_decap_8
XFILLER_48_994 VPWR VGND sg13cmos5l_decap_8
XFILLER_19_151 VPWR VGND sg13cmos5l_decap_8
XFILLER_35_600 VPWR VGND sg13cmos5l_decap_8
XFILLER_34_132 VPWR VGND sg13cmos5l_decap_8
XFILLER_35_677 VPWR VGND sg13cmos5l_decap_8
XFILLER_22_349 VPWR VGND sg13cmos5l_decap_8
XFILLER_30_371 VPWR VGND sg13cmos5l_decap_8
XFILLER_31_894 VPWR VGND sg13cmos5l_decap_8
XFILLER_44_1012 VPWR VGND sg13cmos5l_decap_8
XFILLER_26_600 VPWR VGND sg13cmos5l_decap_8
XFILLER_41_603 VPWR VGND sg13cmos5l_decap_8
XFILLER_13_305 VPWR VGND sg13cmos5l_decap_8
XFILLER_15_11 VPWR VGND sg13cmos5l_decap_8
XFILLER_25_176 VPWR VGND sg13cmos5l_decap_8
XFILLER_26_677 VPWR VGND sg13cmos5l_decap_8
XFILLER_15_88 VPWR VGND sg13cmos5l_decap_8
XFILLER_40_168 VPWR VGND sg13cmos5l_decap_8
XFILLER_21_382 VPWR VGND sg13cmos5l_decap_8
XFILLER_31_32 VPWR VGND sg13cmos5l_decap_8
XFILLER_5_515 VPWR VGND sg13cmos5l_decap_8
Xoutput21 uo_out[4] _51_/Y VPWR VGND sg13cmos5l_buf_1
XFILLER_1_721 VPWR VGND sg13cmos5l_decap_8
XFILLER_49_714 VPWR VGND sg13cmos5l_decap_8
XFILLER_0_231 VPWR VGND sg13cmos5l_decap_8
XFILLER_48_224 VPWR VGND sg13cmos5l_decap_8
XFILLER_1_798 VPWR VGND sg13cmos5l_decap_8
XFILLER_36_408 VPWR VGND sg13cmos5l_decap_8
XFILLER_37_909 VPWR VGND sg13cmos5l_decap_8
XFILLER_29_471 VPWR VGND sg13cmos5l_decap_8
XFILLER_45_942 VPWR VGND sg13cmos5l_decap_8
XFILLER_17_644 VPWR VGND sg13cmos5l_decap_8
XFILLER_44_452 VPWR VGND sg13cmos5l_decap_8
XFILLER_16_165 VPWR VGND sg13cmos5l_decap_8
XFILLER_32_603 VPWR VGND sg13cmos5l_decap_8
XFILLER_31_124 VPWR VGND sg13cmos5l_decap_8
XFILLER_13_872 VPWR VGND sg13cmos5l_decap_8
XFILLER_20_809 VPWR VGND sg13cmos5l_decap_8
XFILLER_12_382 VPWR VGND sg13cmos5l_decap_8
XFILLER_9_865 VPWR VGND sg13cmos5l_decap_8
XFILLER_8_375 VPWR VGND sg13cmos5l_decap_8
XFILLER_4_592 VPWR VGND sg13cmos5l_decap_8
XFILLER_39_235 VPWR VGND sg13cmos5l_decap_8
XFILLER_48_791 VPWR VGND sg13cmos5l_decap_8
XFILLER_35_474 VPWR VGND sg13cmos5l_decap_8
XFILLER_36_975 VPWR VGND sg13cmos5l_decap_8
XFILLER_11_809 VPWR VGND sg13cmos5l_decap_8
XFILLER_22_146 VPWR VGND sg13cmos5l_decap_8
XFILLER_23_669 VPWR VGND sg13cmos5l_decap_8
XFILLER_10_319 VPWR VGND sg13cmos5l_decap_8
XFILLER_31_691 VPWR VGND sg13cmos5l_decap_8
XFILLER_2_529 VPWR VGND sg13cmos5l_decap_8
XFILLER_46_728 VPWR VGND sg13cmos5l_decap_8
XFILLER_45_249 VPWR VGND sg13cmos5l_decap_8
XFILLER_26_32 VPWR VGND sg13cmos5l_fill_2
XFILLER_27_931 VPWR VGND sg13cmos5l_decap_8
XFILLER_42_901 VPWR VGND sg13cmos5l_decap_8
XFILLER_41_400 VPWR VGND sg13cmos5l_decap_8
XFILLER_26_54 VPWR VGND sg13cmos5l_decap_8
XFILLER_26_474 VPWR VGND sg13cmos5l_decap_8
XFILLER_13_102 VPWR VGND sg13cmos5l_decap_8
XFILLER_42_978 VPWR VGND sg13cmos5l_decap_8
XFILLER_14_669 VPWR VGND sg13cmos5l_decap_8
XFILLER_41_477 VPWR VGND sg13cmos5l_decap_8
XFILLER_13_179 VPWR VGND sg13cmos5l_decap_8
XFILLER_42_75 VPWR VGND sg13cmos5l_decap_8
XFILLER_6_802 VPWR VGND sg13cmos5l_decap_8
XFILLER_5_312 VPWR VGND sg13cmos5l_decap_8
XFILLER_10_886 VPWR VGND sg13cmos5l_decap_8
XFILLER_6_879 VPWR VGND sg13cmos5l_decap_8
XFILLER_5_389 VPWR VGND sg13cmos5l_decap_8
XFILLER_3_25 VPWR VGND sg13cmos5l_decap_8
XFILLER_49_511 VPWR VGND sg13cmos5l_decap_8
XFILLER_1_595 VPWR VGND sg13cmos5l_decap_8
XFILLER_37_706 VPWR VGND sg13cmos5l_decap_8
XFILLER_49_588 VPWR VGND sg13cmos5l_decap_8
XFILLER_36_205 VPWR VGND sg13cmos5l_decap_8
XFILLER_18_942 VPWR VGND sg13cmos5l_decap_8
XFILLER_17_441 VPWR VGND sg13cmos5l_decap_8
XFILLER_33_912 VPWR VGND sg13cmos5l_decap_8
XFILLER_32_400 VPWR VGND sg13cmos5l_decap_8
XFILLER_20_606 VPWR VGND sg13cmos5l_decap_8
XFILLER_33_989 VPWR VGND sg13cmos5l_decap_8
XFILLER_34_1000 VPWR VGND sg13cmos5l_decap_8
XFILLER_32_477 VPWR VGND sg13cmos5l_decap_8
XFILLER_9_662 VPWR VGND sg13cmos5l_decap_8
XFILLER_8_172 VPWR VGND sg13cmos5l_decap_8
XFILLER_27_238 VPWR VGND sg13cmos5l_decap_8
XFILLER_42_208 VPWR VGND sg13cmos5l_decap_8
XFILLER_36_772 VPWR VGND sg13cmos5l_decap_8
XFILLER_24_934 VPWR VGND sg13cmos5l_decap_8
XFILLER_35_271 VPWR VGND sg13cmos5l_decap_8
XFILLER_11_606 VPWR VGND sg13cmos5l_decap_8
XFILLER_23_466 VPWR VGND sg13cmos5l_decap_8
XFILLER_10_116 VPWR VGND sg13cmos5l_decap_8
XFILLER_6_109 VPWR VGND sg13cmos5l_decap_8
XFILLER_12_67 VPWR VGND sg13cmos5l_decap_8
XFILLER_3_816 VPWR VGND sg13cmos5l_decap_8
XFILLER_2_326 VPWR VGND sg13cmos5l_decap_8
XFILLER_46_525 VPWR VGND sg13cmos5l_decap_8
XFILLER_19_739 VPWR VGND sg13cmos5l_decap_8
XFILLER_37_42 VPWR VGND sg13cmos5l_decap_8
XFILLER_18_249 VPWR VGND sg13cmos5l_decap_8
XFILLER_37_97 VPWR VGND sg13cmos5l_decap_8
XFILLER_26_271 VPWR VGND sg13cmos5l_decap_8
XFILLER_33_219 VPWR VGND sg13cmos5l_decap_8
XFILLER_15_956 VPWR VGND sg13cmos5l_decap_8
XFILLER_18_1028 VPWR VGND sg13cmos5l_fill_1
XFILLER_42_775 VPWR VGND sg13cmos5l_decap_8
XFILLER_41_274 VPWR VGND sg13cmos5l_decap_8
XFILLER_14_466 VPWR VGND sg13cmos5l_decap_8
XFILLER_30_959 VPWR VGND sg13cmos5l_decap_8
XFILLER_10_683 VPWR VGND sg13cmos5l_decap_8
XFILLER_6_676 VPWR VGND sg13cmos5l_decap_8
XFILLER_5_186 VPWR VGND sg13cmos5l_decap_8
XFILLER_2_893 VPWR VGND sg13cmos5l_decap_8
XFILLER_1_392 VPWR VGND sg13cmos5l_decap_8
X_64_ _65_/B _64_/A _64_/B VPWR VGND sg13cmos5l_xnor2_1
XFILLER_37_503 VPWR VGND sg13cmos5l_decap_8
XFILLER_49_385 VPWR VGND sg13cmos5l_decap_8
XFILLER_20_403 VPWR VGND sg13cmos5l_decap_8
XFILLER_32_274 VPWR VGND sg13cmos5l_decap_8
XFILLER_33_786 VPWR VGND sg13cmos5l_decap_8
Xheichips26_example_small_36 uio_out[4] VPWR VGND sg13cmos5l_tielo
Xheichips26_example_small_25 uio_oe[1] VPWR VGND sg13cmos5l_tielo
XFILLER_0_819 VPWR VGND sg13cmos5l_decap_8
XFILLER_28_558 VPWR VGND sg13cmos5l_decap_8
XFILLER_43_517 VPWR VGND sg13cmos5l_decap_8
XFILLER_24_731 VPWR VGND sg13cmos5l_decap_8
XFILLER_11_403 VPWR VGND sg13cmos5l_decap_8
XFILLER_23_11 VPWR VGND sg13cmos5l_decap_8
XFILLER_23_263 VPWR VGND sg13cmos5l_decap_8
XFILLER_20_970 VPWR VGND sg13cmos5l_decap_8
XFILLER_23_88 VPWR VGND sg13cmos5l_decap_8
XFILLER_3_613 VPWR VGND sg13cmos5l_decap_8
XFILLER_2_123 VPWR VGND sg13cmos5l_decap_8
XFILLER_47_812 VPWR VGND sg13cmos5l_decap_8
XFILLER_48_63 VPWR VGND sg13cmos5l_decap_8
XFILLER_46_322 VPWR VGND sg13cmos5l_decap_8
XFILLER_19_536 VPWR VGND sg13cmos5l_decap_8
XFILLER_47_889 VPWR VGND sg13cmos5l_decap_8
XFILLER_34_517 VPWR VGND sg13cmos5l_decap_8
XFILLER_46_399 VPWR VGND sg13cmos5l_decap_8
XFILLER_15_753 VPWR VGND sg13cmos5l_decap_8
XFILLER_42_572 VPWR VGND sg13cmos5l_decap_8
XFILLER_14_263 VPWR VGND sg13cmos5l_decap_8
XFILLER_9_46 VPWR VGND sg13cmos5l_decap_8
XFILLER_30_756 VPWR VGND sg13cmos5l_decap_8
XFILLER_11_970 VPWR VGND sg13cmos5l_decap_8
XFILLER_10_480 VPWR VGND sg13cmos5l_decap_8
XFILLER_7_952 VPWR VGND sg13cmos5l_decap_8
XFILLER_6_473 VPWR VGND sg13cmos5l_decap_8
XFILLER_43_4 VPWR VGND sg13cmos5l_decap_8
XFILLER_9_1026 VPWR VGND sg13cmos5l_fill_2
XFILLER_2_690 VPWR VGND sg13cmos5l_decap_8
XFILLER_37_300 VPWR VGND sg13cmos5l_decap_8
XFILLER_38_812 VPWR VGND sg13cmos5l_decap_8
XFILLER_49_182 VPWR VGND sg13cmos5l_decap_8
X_47_ _57_/A _48_/A _48_/B VPWR VGND sg13cmos5l_nand2_1
XFILLER_38_889 VPWR VGND sg13cmos5l_decap_8
XFILLER_37_377 VPWR VGND sg13cmos5l_decap_8
XFILLER_20_200 VPWR VGND sg13cmos5l_decap_8
XFILLER_33_583 VPWR VGND sg13cmos5l_decap_8
XFILLER_21_767 VPWR VGND sg13cmos5l_decap_8
XFILLER_20_277 VPWR VGND sg13cmos5l_decap_8
XFILLER_0_616 VPWR VGND sg13cmos5l_decap_8
XFILLER_48_609 VPWR VGND sg13cmos5l_decap_8
XFILLER_47_119 VPWR VGND sg13cmos5l_decap_8
XFILLER_18_11 VPWR VGND sg13cmos5l_decap_8
XFILLER_29_856 VPWR VGND sg13cmos5l_decap_8
XFILLER_28_355 VPWR VGND sg13cmos5l_decap_8
XFILLER_44_837 VPWR VGND sg13cmos5l_decap_8
XFILLER_43_314 VPWR VGND sg13cmos5l_decap_8
XFILLER_18_88 VPWR VGND sg13cmos5l_decap_8
XFILLER_31_509 VPWR VGND sg13cmos5l_decap_8
XFILLER_11_200 VPWR VGND sg13cmos5l_decap_8
XFILLER_34_76 VPWR VGND sg13cmos5l_decap_8
XFILLER_12_767 VPWR VGND sg13cmos5l_decap_8
XFILLER_11_277 VPWR VGND sg13cmos5l_decap_8
XFILLER_7_259 VPWR VGND sg13cmos5l_decap_8
XFILLER_4_900 VPWR VGND sg13cmos5l_decap_8
XFILLER_3_410 VPWR VGND sg13cmos5l_decap_8
XFILLER_4_977 VPWR VGND sg13cmos5l_decap_8
XFILLER_3_487 VPWR VGND sg13cmos5l_decap_8
XFILLER_1_0 VPWR VGND sg13cmos5l_decap_8
XFILLER_38_119 VPWR VGND sg13cmos5l_decap_8
XFILLER_19_333 VPWR VGND sg13cmos5l_decap_8
XFILLER_47_686 VPWR VGND sg13cmos5l_decap_8
XFILLER_34_314 VPWR VGND sg13cmos5l_decap_8
XFILLER_46_196 VPWR VGND sg13cmos5l_decap_8
XFILLER_35_859 VPWR VGND sg13cmos5l_decap_8
XFILLER_43_881 VPWR VGND sg13cmos5l_decap_8
XFILLER_15_550 VPWR VGND sg13cmos5l_decap_8
XFILLER_30_553 VPWR VGND sg13cmos5l_decap_8
XFILLER_6_270 VPWR VGND sg13cmos5l_decap_8
XFILLER_1_91 VPWR VGND sg13cmos5l_decap_8
XFILLER_37_174 VPWR VGND sg13cmos5l_decap_8
XFILLER_38_686 VPWR VGND sg13cmos5l_decap_8
XFILLER_25_358 VPWR VGND sg13cmos5l_decap_8
XFILLER_26_859 VPWR VGND sg13cmos5l_decap_8
XFILLER_34_881 VPWR VGND sg13cmos5l_decap_8
XFILLER_33_380 VPWR VGND sg13cmos5l_decap_8
XFILLER_21_564 VPWR VGND sg13cmos5l_decap_8
XFILLER_4_207 VPWR VGND sg13cmos5l_decap_8
XFILLER_1_903 VPWR VGND sg13cmos5l_decap_8
XFILLER_20_67 VPWR VGND sg13cmos5l_decap_8
XFILLER_0_413 VPWR VGND sg13cmos5l_decap_8
XFILLER_48_406 VPWR VGND sg13cmos5l_decap_8
XFILLER_29_653 VPWR VGND sg13cmos5l_decap_8
XFILLER_17_826 VPWR VGND sg13cmos5l_decap_8
XFILLER_28_152 VPWR VGND sg13cmos5l_decap_8
XFILLER_45_53 VPWR VGND sg13cmos5l_decap_8
XFILLER_44_634 VPWR VGND sg13cmos5l_decap_8
XFILLER_43_111 VPWR VGND sg13cmos5l_decap_8
XFILLER_16_347 VPWR VGND sg13cmos5l_decap_8
XFILLER_31_306 VPWR VGND sg13cmos5l_decap_8
XFILLER_43_188 VPWR VGND sg13cmos5l_decap_8
XFILLER_12_564 VPWR VGND sg13cmos5l_decap_8
XFILLER_40_840 VPWR VGND sg13cmos5l_decap_8
XFILLER_8_557 VPWR VGND sg13cmos5l_decap_8
XFILLER_6_25 VPWR VGND sg13cmos5l_decap_8
XFILLER_4_774 VPWR VGND sg13cmos5l_decap_8
XFILLER_3_284 VPWR VGND sg13cmos5l_decap_8
XFILLER_39_417 VPWR VGND sg13cmos5l_decap_8
XFILLER_0_980 VPWR VGND sg13cmos5l_decap_8
XFILLER_48_973 VPWR VGND sg13cmos5l_decap_8
XFILLER_19_130 VPWR VGND sg13cmos5l_decap_8
XFILLER_47_483 VPWR VGND sg13cmos5l_decap_8
XFILLER_34_111 VPWR VGND sg13cmos5l_decap_8
XFILLER_35_656 VPWR VGND sg13cmos5l_decap_8
XFILLER_22_328 VPWR VGND sg13cmos5l_decap_8
XFILLER_34_188 VPWR VGND sg13cmos5l_decap_8
XFILLER_31_873 VPWR VGND sg13cmos5l_decap_8
XFILLER_30_350 VPWR VGND sg13cmos5l_decap_8
XFILLER_38_483 VPWR VGND sg13cmos5l_decap_8
XFILLER_39_984 VPWR VGND sg13cmos5l_decap_8
XFILLER_26_656 VPWR VGND sg13cmos5l_decap_8
XFILLER_25_155 VPWR VGND sg13cmos5l_decap_8
XFILLER_41_659 VPWR VGND sg13cmos5l_decap_8
XFILLER_15_67 VPWR VGND sg13cmos5l_decap_8
XFILLER_40_147 VPWR VGND sg13cmos5l_decap_8
XFILLER_21_361 VPWR VGND sg13cmos5l_decap_8
XFILLER_22_895 VPWR VGND sg13cmos5l_decap_8
XFILLER_31_11 VPWR VGND sg13cmos5l_decap_8
XFILLER_31_99 VPWR VGND sg13cmos5l_decap_4