*SPEF "ieee 1481-1999"
*DESIGN "heichips26_example_large"
*DATE "11:22:01 Thursday June 25, 2026"
*VENDOR "The OpenROAD Project"
*PROGRAM "OpenROAD"
*VERSION "dcf36133a369abc8f3c5e5738cd4d82e4903c0e0"
*DESIGN_FLOW "NAME_SCOPE LOCAL" "PIN_CAP NONE"
*DIVIDER /
*DELIMITER :
*BUS_DELIMITER []
*T_UNIT 1 NS
*C_UNIT 1 PF
*R_UNIT 1 OHM
*L_UNIT 1 HENRY

*NAME_MAP
*3 clk
*4 ena
*5 rst_n
*6 ui_in[0]
*7 ui_in[1]
*8 ui_in[2]
*9 ui_in[3]
*10 ui_in[4]
*11 ui_in[5]
*12 ui_in[6]
*13 ui_in[7]
*14 uio_in[0]
*15 uio_in[1]
*16 uio_in[2]
*17 uio_in[3]
*18 uio_in[4]
*19 uio_in[5]
*20 uio_in[6]
*21 uio_in[7]
*22 net
*23 net25
*24 net26
*25 net27
*26 net28
*27 net29
*28 net30
*29 net31
*30 net32
*31 net33
*32 net34
*33 net35
*34 net36
*35 net37
*36 net38
*37 net39
*38 uo_out[0]
*39 uo_out[1]
*40 uo_out[2]
*41 uo_out[3]
*42 uo_out[4]
*43 uo_out[5]
*44 uo_out[6]
*45 uo_out[7]
*46 _00_
*47 _01_
*48 _02_
*49 _03_
*50 _04_
*51 _05_
*52 _06_
*53 _07_
*54 _08_
*55 _09_
*56 _10_
*57 _11_
*58 _12_
*59 _13_
*60 _14_
*61 _15_
*62 _16_
*63 _17_
*64 _18_
*65 _19_
*66 _20_
*67 _21_
*68 _22_
*69 _23_
*70 _24_
*71 _25_
*72 _26_
*73 _27_
*74 _28_
*75 net1
*76 net10
*77 net11
*78 net12
*79 net13
*80 net14
*81 net15
*82 net16
*83 net17
*84 net18
*85 net19
*86 net2
*87 net20
*88 net21
*89 net22
*90 net23
*91 net24
*92 net3
*93 net4
*94 net5
*95 net6
*96 net7
*97 net8
*98 net9
*99 FILLER_0_0
*100 FILLER_0_1001
*101 FILLER_0_1008
*102 FILLER_0_1015
*103 FILLER_0_1022
*104 FILLER_0_105
*105 FILLER_0_112
*106 FILLER_0_119
*107 FILLER_0_126
*108 FILLER_0_133
*109 FILLER_0_14
*110 FILLER_0_140
*111 FILLER_0_147
*112 FILLER_0_154
*113 FILLER_0_161
*114 FILLER_0_168
*115 FILLER_0_175
*116 FILLER_0_182
*117 FILLER_0_189
*118 FILLER_0_196
*119 FILLER_0_203
*120 FILLER_0_21
*121 FILLER_0_210
*122 FILLER_0_217
*123 FILLER_0_224
*124 FILLER_0_231
*125 FILLER_0_238
*126 FILLER_0_245
*127 FILLER_0_252
*128 FILLER_0_259
*129 FILLER_0_266
*130 FILLER_0_273
*131 FILLER_0_28
*132 FILLER_0_280
*133 FILLER_0_287
*134 FILLER_0_294
*135 FILLER_0_301
*136 FILLER_0_308
*137 FILLER_0_315
*138 FILLER_0_322
*139 FILLER_0_329
*140 FILLER_0_336
*141 FILLER_0_343
*142 FILLER_0_35
*143 FILLER_0_350
*144 FILLER_0_357
*145 FILLER_0_364
*146 FILLER_0_371
*147 FILLER_0_378
*148 FILLER_0_385
*149 FILLER_0_392
*150 FILLER_0_399
*151 FILLER_0_406
*152 FILLER_0_413
*153 FILLER_0_42
*154 FILLER_0_420
*155 FILLER_0_427
*156 FILLER_0_434
*157 FILLER_0_441
*158 FILLER_0_448
*159 FILLER_0_455
*160 FILLER_0_462
*161 FILLER_0_469
*162 FILLER_0_476
*163 FILLER_0_483
*164 FILLER_0_49
*165 FILLER_0_490
*166 FILLER_0_497
*167 FILLER_0_504
*168 FILLER_0_511
*169 FILLER_0_518
*170 FILLER_0_525
*171 FILLER_0_532
*172 FILLER_0_539
*173 FILLER_0_546
*174 FILLER_0_553
*175 FILLER_0_56
*176 FILLER_0_560
*177 FILLER_0_567
*178 FILLER_0_574
*179 FILLER_0_581
*180 FILLER_0_588
*181 FILLER_0_595
*182 FILLER_0_602
*183 FILLER_0_609
*184 FILLER_0_616
*185 FILLER_0_623
*186 FILLER_0_63
*187 FILLER_0_630
*188 FILLER_0_637
*189 FILLER_0_644
*190 FILLER_0_651
*191 FILLER_0_658
*192 FILLER_0_665
*193 FILLER_0_672
*194 FILLER_0_679
*195 FILLER_0_686
*196 FILLER_0_693
*197 FILLER_0_7
*198 FILLER_0_70
*199 FILLER_0_700
*200 FILLER_0_707
*201 FILLER_0_714
*202 FILLER_0_721
*203 FILLER_0_728
*204 FILLER_0_735
*205 FILLER_0_742
*206 FILLER_0_749
*207 FILLER_0_756
*208 FILLER_0_763
*209 FILLER_0_77
*210 FILLER_0_770
*211 FILLER_0_777
*212 FILLER_0_784
*213 FILLER_0_791
*214 FILLER_0_798
*215 FILLER_0_805
*216 FILLER_0_812
*217 FILLER_0_819
*218 FILLER_0_826
*219 FILLER_0_833
*220 FILLER_0_84
*221 FILLER_0_840
*222 FILLER_0_847
*223 FILLER_0_854
*224 FILLER_0_861
*225 FILLER_0_868
*226 FILLER_0_875
*227 FILLER_0_882
*228 FILLER_0_889
*229 FILLER_0_896
*230 FILLER_0_903
*231 FILLER_0_91
*232 FILLER_0_910
*233 FILLER_0_917
*234 FILLER_0_924
*235 FILLER_0_931
*236 FILLER_0_938
*237 FILLER_0_945
*238 FILLER_0_952
*239 FILLER_0_959
*240 FILLER_0_966
*241 FILLER_0_973
*242 FILLER_0_98
*243 FILLER_0_980
*244 FILLER_0_987
*245 FILLER_0_994
*246 FILLER_100_0
*247 FILLER_100_1001
*248 FILLER_100_1008
*249 FILLER_100_1015
*250 FILLER_100_1022
*251 FILLER_100_105
*252 FILLER_100_112
*253 FILLER_100_119
*254 FILLER_100_126
*255 FILLER_100_133
*256 FILLER_100_14
*257 FILLER_100_140
*258 FILLER_100_147
*259 FILLER_100_154
*260 FILLER_100_161
*261 FILLER_100_168
*262 FILLER_100_175
*263 FILLER_100_182
*264 FILLER_100_189
*265 FILLER_100_196
*266 FILLER_100_203
*267 FILLER_100_21
*268 FILLER_100_210
*269 FILLER_100_217
*270 FILLER_100_224
*271 FILLER_100_231
*272 FILLER_100_238
*273 FILLER_100_245
*274 FILLER_100_252
*275 FILLER_100_259
*276 FILLER_100_266
*277 FILLER_100_273
*278 FILLER_100_28
*279 FILLER_100_280
*280 FILLER_100_287
*281 FILLER_100_294
*282 FILLER_100_301
*283 FILLER_100_308
*284 FILLER_100_315
*285 FILLER_100_322
*286 FILLER_100_329
*287 FILLER_100_336
*288 FILLER_100_343
*289 FILLER_100_35
*290 FILLER_100_350
*291 FILLER_100_357
*292 FILLER_100_364
*293 FILLER_100_371
*294 FILLER_100_378
*295 FILLER_100_385
*296 FILLER_100_392
*297 FILLER_100_399
*298 FILLER_100_406
*299 FILLER_100_413
*300 FILLER_100_42
*301 FILLER_100_420
*302 FILLER_100_427
*303 FILLER_100_434
*304 FILLER_100_441
*305 FILLER_100_448
*306 FILLER_100_455
*307 FILLER_100_462
*308 FILLER_100_469
*309 FILLER_100_476
*310 FILLER_100_483
*311 FILLER_100_49
*312 FILLER_100_490
*313 FILLER_100_497
*314 FILLER_100_504
*315 FILLER_100_511
*316 FILLER_100_518
*317 FILLER_100_525
*318 FILLER_100_532
*319 FILLER_100_539
*320 FILLER_100_546
*321 FILLER_100_553
*322 FILLER_100_56
*323 FILLER_100_560
*324 FILLER_100_567
*325 FILLER_100_574
*326 FILLER_100_581
*327 FILLER_100_588
*328 FILLER_100_595
*329 FILLER_100_602
*330 FILLER_100_609
*331 FILLER_100_616
*332 FILLER_100_623
*333 FILLER_100_63
*334 FILLER_100_630
*335 FILLER_100_637
*336 FILLER_100_644
*337 FILLER_100_651
*338 FILLER_100_658
*339 FILLER_100_665
*340 FILLER_100_672
*341 FILLER_100_679
*342 FILLER_100_686
*343 FILLER_100_693
*344 FILLER_100_7
*345 FILLER_100_70
*346 FILLER_100_700
*347 FILLER_100_707
*348 FILLER_100_714
*349 FILLER_100_721
*350 FILLER_100_728
*351 FILLER_100_735
*352 FILLER_100_742
*353 FILLER_100_749
*354 FILLER_100_756
*355 FILLER_100_763
*356 FILLER_100_77
*357 FILLER_100_770
*358 FILLER_100_777
*359 FILLER_100_784
*360 FILLER_100_791
*361 FILLER_100_798
*362 FILLER_100_805
*363 FILLER_100_812
*364 FILLER_100_819
*365 FILLER_100_826
*366 FILLER_100_833
*367 FILLER_100_84
*368 FILLER_100_840
*369 FILLER_100_847
*370 FILLER_100_854
*371 FILLER_100_861
*372 FILLER_100_868
*373 FILLER_100_875
*374 FILLER_100_882
*375 FILLER_100_889
*376 FILLER_100_896
*377 FILLER_100_903
*378 FILLER_100_91
*379 FILLER_100_910
*380 FILLER_100_917
*381 FILLER_100_924
*382 FILLER_100_931
*383 FILLER_100_938
*384 FILLER_100_945
*385 FILLER_100_952
*386 FILLER_100_959
*387 FILLER_100_966
*388 FILLER_100_973
*389 FILLER_100_98
*390 FILLER_100_980
*391 FILLER_100_987
*392 FILLER_100_994
*393 FILLER_101_0
*394 FILLER_101_1001
*395 FILLER_101_1008
*396 FILLER_101_1015
*397 FILLER_101_1022
*398 FILLER_101_105
*399 FILLER_101_112
*400 FILLER_101_119
*401 FILLER_101_126
*402 FILLER_101_133
*403 FILLER_101_14
*404 FILLER_101_140
*405 FILLER_101_147
*406 FILLER_101_154
*407 FILLER_101_161
*408 FILLER_101_168
*409 FILLER_101_175
*410 FILLER_101_182
*411 FILLER_101_189
*412 FILLER_101_196
*413 FILLER_101_203
*414 FILLER_101_21
*415 FILLER_101_210
*416 FILLER_101_217
*417 FILLER_101_224
*418 FILLER_101_231
*419 FILLER_101_238
*420 FILLER_101_245
*421 FILLER_101_252
*422 FILLER_101_259
*423 FILLER_101_266
*424 FILLER_101_273
*425 FILLER_101_28
*426 FILLER_101_280
*427 FILLER_101_287
*428 FILLER_101_294
*429 FILLER_101_301
*430 FILLER_101_308
*431 FILLER_101_315
*432 FILLER_101_322
*433 FILLER_101_329
*434 FILLER_101_336
*435 FILLER_101_343
*436 FILLER_101_35
*437 FILLER_101_350
*438 FILLER_101_357
*439 FILLER_101_364
*440 FILLER_101_371
*441 FILLER_101_378
*442 FILLER_101_385
*443 FILLER_101_392
*444 FILLER_101_399
*445 FILLER_101_406
*446 FILLER_101_413
*447 FILLER_101_42
*448 FILLER_101_420
*449 FILLER_101_427
*450 FILLER_101_434
*451 FILLER_101_441
*452 FILLER_101_448
*453 FILLER_101_455
*454 FILLER_101_462
*455 FILLER_101_469
*456 FILLER_101_476
*457 FILLER_101_483
*458 FILLER_101_49
*459 FILLER_101_490
*460 FILLER_101_497
*461 FILLER_101_504
*462 FILLER_101_511
*463 FILLER_101_518
*464 FILLER_101_525
*465 FILLER_101_532
*466 FILLER_101_539
*467 FILLER_101_546
*468 FILLER_101_553
*469 FILLER_101_56
*470 FILLER_101_560
*471 FILLER_101_567
*472 FILLER_101_574
*473 FILLER_101_581
*474 FILLER_101_588
*475 FILLER_101_595
*476 FILLER_101_602
*477 FILLER_101_609
*478 FILLER_101_616
*479 FILLER_101_623
*480 FILLER_101_63
*481 FILLER_101_630
*482 FILLER_101_637
*483 FILLER_101_644
*484 FILLER_101_651
*485 FILLER_101_658
*486 FILLER_101_665
*487 FILLER_101_672
*488 FILLER_101_679
*489 FILLER_101_686
*490 FILLER_101_693
*491 FILLER_101_7
*492 FILLER_101_70
*493 FILLER_101_700
*494 FILLER_101_707
*495 FILLER_101_714
*496 FILLER_101_721
*497 FILLER_101_728
*498 FILLER_101_735
*499 FILLER_101_742
*500 FILLER_101_749
*501 FILLER_101_756
*502 FILLER_101_763
*503 FILLER_101_77
*504 FILLER_101_770
*505 FILLER_101_777
*506 FILLER_101_784
*507 FILLER_101_791
*508 FILLER_101_798
*509 FILLER_101_805
*510 FILLER_101_812
*511 FILLER_101_819
*512 FILLER_101_826
*513 FILLER_101_833
*514 FILLER_101_84
*515 FILLER_101_840
*516 FILLER_101_847
*517 FILLER_101_854
*518 FILLER_101_861
*519 FILLER_101_868
*520 FILLER_101_875
*521 FILLER_101_882
*522 FILLER_101_889
*523 FILLER_101_896
*524 FILLER_101_903
*525 FILLER_101_91
*526 FILLER_101_910
*527 FILLER_101_917
*528 FILLER_101_924
*529 FILLER_101_931
*530 FILLER_101_938
*531 FILLER_101_945
*532 FILLER_101_952
*533 FILLER_101_959
*534 FILLER_101_966
*535 FILLER_101_973
*536 FILLER_101_98
*537 FILLER_101_980
*538 FILLER_101_987
*539 FILLER_101_994
*540 FILLER_102_0
*541 FILLER_102_1001
*542 FILLER_102_1008
*543 FILLER_102_1015
*544 FILLER_102_1022
*545 FILLER_102_105
*546 FILLER_102_112
*547 FILLER_102_119
*548 FILLER_102_126
*549 FILLER_102_133
*550 FILLER_102_14
*551 FILLER_102_140
*552 FILLER_102_147
*553 FILLER_102_154
*554 FILLER_102_161
*555 FILLER_102_168
*556 FILLER_102_175
*557 FILLER_102_182
*558 FILLER_102_189
*559 FILLER_102_196
*560 FILLER_102_203
*561 FILLER_102_21
*562 FILLER_102_210
*563 FILLER_102_217
*564 FILLER_102_224
*565 FILLER_102_231
*566 FILLER_102_238
*567 FILLER_102_245
*568 FILLER_102_252
*569 FILLER_102_259
*570 FILLER_102_266
*571 FILLER_102_273
*572 FILLER_102_28
*573 FILLER_102_280
*574 FILLER_102_287
*575 FILLER_102_294
*576 FILLER_102_301
*577 FILLER_102_308
*578 FILLER_102_315
*579 FILLER_102_322
*580 FILLER_102_329
*581 FILLER_102_336
*582 FILLER_102_343
*583 FILLER_102_35
*584 FILLER_102_350
*585 FILLER_102_357
*586 FILLER_102_364
*587 FILLER_102_371
*588 FILLER_102_378
*589 FILLER_102_385
*590 FILLER_102_392
*591 FILLER_102_399
*592 FILLER_102_406
*593 FILLER_102_413
*594 FILLER_102_42
*595 FILLER_102_420
*596 FILLER_102_427
*597 FILLER_102_434
*598 FILLER_102_441
*599 FILLER_102_448
*600 FILLER_102_455
*601 FILLER_102_462
*602 FILLER_102_469
*603 FILLER_102_476
*604 FILLER_102_483
*605 FILLER_102_49
*606 FILLER_102_490
*607 FILLER_102_497
*608 FILLER_102_504
*609 FILLER_102_511
*610 FILLER_102_518
*611 FILLER_102_525
*612 FILLER_102_532
*613 FILLER_102_539
*614 FILLER_102_546
*615 FILLER_102_553
*616 FILLER_102_56
*617 FILLER_102_560
*618 FILLER_102_567
*619 FILLER_102_574
*620 FILLER_102_581
*621 FILLER_102_588
*622 FILLER_102_595
*623 FILLER_102_602
*624 FILLER_102_609
*625 FILLER_102_616
*626 FILLER_102_623
*627 FILLER_102_63
*628 FILLER_102_630
*629 FILLER_102_637
*630 FILLER_102_644
*631 FILLER_102_651
*632 FILLER_102_658
*633 FILLER_102_665
*634 FILLER_102_672
*635 FILLER_102_679
*636 FILLER_102_686
*637 FILLER_102_693
*638 FILLER_102_7
*639 FILLER_102_70
*640 FILLER_102_700
*641 FILLER_102_707
*642 FILLER_102_714
*643 FILLER_102_721
*644 FILLER_102_728
*645 FILLER_102_735
*646 FILLER_102_742
*647 FILLER_102_749
*648 FILLER_102_756
*649 FILLER_102_763
*650 FILLER_102_77
*651 FILLER_102_770
*652 FILLER_102_777
*653 FILLER_102_784
*654 FILLER_102_791
*655 FILLER_102_798
*656 FILLER_102_805
*657 FILLER_102_812
*658 FILLER_102_819
*659 FILLER_102_826
*660 FILLER_102_833
*661 FILLER_102_84
*662 FILLER_102_840
*663 FILLER_102_847
*664 FILLER_102_854
*665 FILLER_102_861
*666 FILLER_102_868
*667 FILLER_102_875
*668 FILLER_102_882
*669 FILLER_102_889
*670 FILLER_102_896
*671 FILLER_102_903
*672 FILLER_102_91
*673 FILLER_102_910
*674 FILLER_102_917
*675 FILLER_102_924
*676 FILLER_102_931
*677 FILLER_102_938
*678 FILLER_102_945
*679 FILLER_102_952
*680 FILLER_102_959
*681 FILLER_102_966
*682 FILLER_102_973
*683 FILLER_102_98
*684 FILLER_102_980
*685 FILLER_102_987
*686 FILLER_102_994
*687 FILLER_103_0
*688 FILLER_103_1001
*689 FILLER_103_1008
*690 FILLER_103_1015
*691 FILLER_103_1022
*692 FILLER_103_105
*693 FILLER_103_112
*694 FILLER_103_119
*695 FILLER_103_126
*696 FILLER_103_133
*697 FILLER_103_14
*698 FILLER_103_140
*699 FILLER_103_147
*700 FILLER_103_154
*701 FILLER_103_161
*702 FILLER_103_168
*703 FILLER_103_175
*704 FILLER_103_182
*705 FILLER_103_189
*706 FILLER_103_196
*707 FILLER_103_203
*708 FILLER_103_21
*709 FILLER_103_210
*710 FILLER_103_217
*711 FILLER_103_224
*712 FILLER_103_231
*713 FILLER_103_238
*714 FILLER_103_245
*715 FILLER_103_252
*716 FILLER_103_259
*717 FILLER_103_266
*718 FILLER_103_273
*719 FILLER_103_28
*720 FILLER_103_280
*721 FILLER_103_287
*722 FILLER_103_294
*723 FILLER_103_301
*724 FILLER_103_308
*725 FILLER_103_315
*726 FILLER_103_322
*727 FILLER_103_329
*728 FILLER_103_336
*729 FILLER_103_343
*730 FILLER_103_35
*731 FILLER_103_350
*732 FILLER_103_357
*733 FILLER_103_364
*734 FILLER_103_371
*735 FILLER_103_378
*736 FILLER_103_385
*737 FILLER_103_392
*738 FILLER_103_399
*739 FILLER_103_406
*740 FILLER_103_413
*741 FILLER_103_42
*742 FILLER_103_420
*743 FILLER_103_427
*744 FILLER_103_434
*745 FILLER_103_441
*746 FILLER_103_448
*747 FILLER_103_455
*748 FILLER_103_462
*749 FILLER_103_469
*750 FILLER_103_476
*751 FILLER_103_483
*752 FILLER_103_49
*753 FILLER_103_490
*754 FILLER_103_497
*755 FILLER_103_504
*756 FILLER_103_511
*757 FILLER_103_518
*758 FILLER_103_525
*759 FILLER_103_532
*760 FILLER_103_539
*761 FILLER_103_546
*762 FILLER_103_553
*763 FILLER_103_56
*764 FILLER_103_560
*765 FILLER_103_567
*766 FILLER_103_574
*767 FILLER_103_581
*768 FILLER_103_588
*769 FILLER_103_595
*770 FILLER_103_602
*771 FILLER_103_609
*772 FILLER_103_616
*773 FILLER_103_623
*774 FILLER_103_63
*775 FILLER_103_630
*776 FILLER_103_637
*777 FILLER_103_644
*778 FILLER_103_651
*779 FILLER_103_658
*780 FILLER_103_665
*781 FILLER_103_672
*782 FILLER_103_679
*783 FILLER_103_686
*784 FILLER_103_693
*785 FILLER_103_7
*786 FILLER_103_70
*787 FILLER_103_700
*788 FILLER_103_707
*789 FILLER_103_714
*790 FILLER_103_721
*791 FILLER_103_728
*792 FILLER_103_735
*793 FILLER_103_742
*794 FILLER_103_749
*795 FILLER_103_756
*796 FILLER_103_763
*797 FILLER_103_77
*798 FILLER_103_770
*799 FILLER_103_777
*800 FILLER_103_784
*801 FILLER_103_791
*802 FILLER_103_798
*803 FILLER_103_805
*804 FILLER_103_812
*805 FILLER_103_819
*806 FILLER_103_826
*807 FILLER_103_833
*808 FILLER_103_84
*809 FILLER_103_840
*810 FILLER_103_847
*811 FILLER_103_854
*812 FILLER_103_861
*813 FILLER_103_868
*814 FILLER_103_875
*815 FILLER_103_882
*816 FILLER_103_889
*817 FILLER_103_896
*818 FILLER_103_903
*819 FILLER_103_91
*820 FILLER_103_910
*821 FILLER_103_917
*822 FILLER_103_924
*823 FILLER_103_931
*824 FILLER_103_938
*825 FILLER_103_945
*826 FILLER_103_952
*827 FILLER_103_959
*828 FILLER_103_966
*829 FILLER_103_973
*830 FILLER_103_98
*831 FILLER_103_980
*832 FILLER_103_987
*833 FILLER_103_994
*834 FILLER_104_0
*835 FILLER_104_1001
*836 FILLER_104_1008
*837 FILLER_104_1015
*838 FILLER_104_1022
*839 FILLER_104_105
*840 FILLER_104_112
*841 FILLER_104_119
*842 FILLER_104_126
*843 FILLER_104_133
*844 FILLER_104_14
*845 FILLER_104_140
*846 FILLER_104_147
*847 FILLER_104_154
*848 FILLER_104_161
*849 FILLER_104_168
*850 FILLER_104_175
*851 FILLER_104_182
*852 FILLER_104_189
*853 FILLER_104_196
*854 FILLER_104_203
*855 FILLER_104_21
*856 FILLER_104_210
*857 FILLER_104_217
*858 FILLER_104_224
*859 FILLER_104_231
*860 FILLER_104_238
*861 FILLER_104_245
*862 FILLER_104_252
*863 FILLER_104_259
*864 FILLER_104_266
*865 FILLER_104_273
*866 FILLER_104_28
*867 FILLER_104_280
*868 FILLER_104_287
*869 FILLER_104_294
*870 FILLER_104_301
*871 FILLER_104_308
*872 FILLER_104_315
*873 FILLER_104_322
*874 FILLER_104_329
*875 FILLER_104_336
*876 FILLER_104_343
*877 FILLER_104_35
*878 FILLER_104_350
*879 FILLER_104_357
*880 FILLER_104_364
*881 FILLER_104_371
*882 FILLER_104_378
*883 FILLER_104_385
*884 FILLER_104_392
*885 FILLER_104_399
*886 FILLER_104_406
*887 FILLER_104_413
*888 FILLER_104_42
*889 FILLER_104_420
*890 FILLER_104_427
*891 FILLER_104_434
*892 FILLER_104_441
*893 FILLER_104_448
*894 FILLER_104_455
*895 FILLER_104_462
*896 FILLER_104_469
*897 FILLER_104_476
*898 FILLER_104_483
*899 FILLER_104_49
*900 FILLER_104_490
*901 FILLER_104_497
*902 FILLER_104_504
*903 FILLER_104_511
*904 FILLER_104_518
*905 FILLER_104_525
*906 FILLER_104_532
*907 FILLER_104_539
*908 FILLER_104_546
*909 FILLER_104_553
*910 FILLER_104_56
*911 FILLER_104_560
*912 FILLER_104_567
*913 FILLER_104_574
*914 FILLER_104_581
*915 FILLER_104_588
*916 FILLER_104_595
*917 FILLER_104_602
*918 FILLER_104_609
*919 FILLER_104_616
*920 FILLER_104_623
*921 FILLER_104_63
*922 FILLER_104_630
*923 FILLER_104_637
*924 FILLER_104_644
*925 FILLER_104_651
*926 FILLER_104_658
*927 FILLER_104_665
*928 FILLER_104_672
*929 FILLER_104_679
*930 FILLER_104_686
*931 FILLER_104_693
*932 FILLER_104_7
*933 FILLER_104_70
*934 FILLER_104_700
*935 FILLER_104_707
*936 FILLER_104_714
*937 FILLER_104_721
*938 FILLER_104_728
*939 FILLER_104_735
*940 FILLER_104_742
*941 FILLER_104_749
*942 FILLER_104_756
*943 FILLER_104_763
*944 FILLER_104_77
*945 FILLER_104_770
*946 FILLER_104_777
*947 FILLER_104_784
*948 FILLER_104_791
*949 FILLER_104_798
*950 FILLER_104_805
*951 FILLER_104_812
*952 FILLER_104_819
*953 FILLER_104_826
*954 FILLER_104_833
*955 FILLER_104_84
*956 FILLER_104_840
*957 FILLER_104_847
*958 FILLER_104_854
*959 FILLER_104_861
*960 FILLER_104_868
*961 FILLER_104_875
*962 FILLER_104_882
*963 FILLER_104_889
*964 FILLER_104_896
*965 FILLER_104_903
*966 FILLER_104_91
*967 FILLER_104_910
*968 FILLER_104_917
*969 FILLER_104_924
*970 FILLER_104_931
*971 FILLER_104_938
*972 FILLER_104_945
*973 FILLER_104_952
*974 FILLER_104_959
*975 FILLER_104_966
*976 FILLER_104_973
*977 FILLER_104_98
*978 FILLER_104_980
*979 FILLER_104_987
*980 FILLER_104_994
*981 FILLER_105_0
*982 FILLER_105_1001
*983 FILLER_105_1008
*984 FILLER_105_1015
*985 FILLER_105_1022
*986 FILLER_105_105
*987 FILLER_105_112
*988 FILLER_105_119
*989 FILLER_105_126
*990 FILLER_105_133
*991 FILLER_105_14
*992 FILLER_105_140
*993 FILLER_105_147
*994 FILLER_105_154
*995 FILLER_105_161
*996 FILLER_105_168
*997 FILLER_105_175
*998 FILLER_105_182
*999 FILLER_105_189
*1000 FILLER_105_196
*1001 FILLER_105_203
*1002 FILLER_105_21
*1003 FILLER_105_210
*1004 FILLER_105_217
*1005 FILLER_105_224
*1006 FILLER_105_231
*1007 FILLER_105_238
*1008 FILLER_105_245
*1009 FILLER_105_252
*1010 FILLER_105_259
*1011 FILLER_105_266
*1012 FILLER_105_273
*1013 FILLER_105_28
*1014 FILLER_105_280
*1015 FILLER_105_287
*1016 FILLER_105_294
*1017 FILLER_105_301
*1018 FILLER_105_308
*1019 FILLER_105_315
*1020 FILLER_105_322
*1021 FILLER_105_329
*1022 FILLER_105_336
*1023 FILLER_105_343
*1024 FILLER_105_35
*1025 FILLER_105_350
*1026 FILLER_105_357
*1027 FILLER_105_364
*1028 FILLER_105_371
*1029 FILLER_105_378
*1030 FILLER_105_385
*1031 FILLER_105_392
*1032 FILLER_105_399
*1033 FILLER_105_406
*1034 FILLER_105_413
*1035 FILLER_105_42
*1036 FILLER_105_420
*1037 FILLER_105_427
*1038 FILLER_105_434
*1039 FILLER_105_441
*1040 FILLER_105_448
*1041 FILLER_105_455
*1042 FILLER_105_462
*1043 FILLER_105_469
*1044 FILLER_105_476
*1045 FILLER_105_483
*1046 FILLER_105_49
*1047 FILLER_105_490
*1048 FILLER_105_497
*1049 FILLER_105_504
*1050 FILLER_105_511
*1051 FILLER_105_518
*1052 FILLER_105_525
*1053 FILLER_105_532
*1054 FILLER_105_539
*1055 FILLER_105_546
*1056 FILLER_105_553
*1057 FILLER_105_56
*1058 FILLER_105_560
*1059 FILLER_105_567
*1060 FILLER_105_574
*1061 FILLER_105_581
*1062 FILLER_105_588
*1063 FILLER_105_595
*1064 FILLER_105_602
*1065 FILLER_105_609
*1066 FILLER_105_616
*1067 FILLER_105_623
*1068 FILLER_105_63
*1069 FILLER_105_630
*1070 FILLER_105_637
*1071 FILLER_105_644
*1072 FILLER_105_651
*1073 FILLER_105_658
*1074 FILLER_105_665
*1075 FILLER_105_672
*1076 FILLER_105_679
*1077 FILLER_105_686
*1078 FILLER_105_693
*1079 FILLER_105_7
*1080 FILLER_105_70
*1081 FILLER_105_700
*1082 FILLER_105_707
*1083 FILLER_105_714
*1084 FILLER_105_721
*1085 FILLER_105_728
*1086 FILLER_105_735
*1087 FILLER_105_742
*1088 FILLER_105_749
*1089 FILLER_105_756
*1090 FILLER_105_763
*1091 FILLER_105_77
*1092 FILLER_105_770
*1093 FILLER_105_777
*1094 FILLER_105_784
*1095 FILLER_105_791
*1096 FILLER_105_798
*1097 FILLER_105_805
*1098 FILLER_105_812
*1099 FILLER_105_819
*1100 FILLER_105_826
*1101 FILLER_105_833
*1102 FILLER_105_84
*1103 FILLER_105_840
*1104 FILLER_105_847
*1105 FILLER_105_854
*1106 FILLER_105_861
*1107 FILLER_105_868
*1108 FILLER_105_875
*1109 FILLER_105_882
*1110 FILLER_105_889
*1111 FILLER_105_896
*1112 FILLER_105_903
*1113 FILLER_105_91
*1114 FILLER_105_910
*1115 FILLER_105_917
*1116 FILLER_105_924
*1117 FILLER_105_931
*1118 FILLER_105_938
*1119 FILLER_105_945
*1120 FILLER_105_952
*1121 FILLER_105_959
*1122 FILLER_105_966
*1123 FILLER_105_973
*1124 FILLER_105_98
*1125 FILLER_105_980
*1126 FILLER_105_987
*1127 FILLER_105_994
*1128 FILLER_106_0
*1129 FILLER_106_1001
*1130 FILLER_106_1008
*1131 FILLER_106_1015
*1132 FILLER_106_1022
*1133 FILLER_106_105
*1134 FILLER_106_112
*1135 FILLER_106_119
*1136 FILLER_106_126
*1137 FILLER_106_133
*1138 FILLER_106_14
*1139 FILLER_106_140
*1140 FILLER_106_147
*1141 FILLER_106_154
*1142 FILLER_106_161
*1143 FILLER_106_168
*1144 FILLER_106_175
*1145 FILLER_106_182
*1146 FILLER_106_189
*1147 FILLER_106_196
*1148 FILLER_106_203
*1149 FILLER_106_21
*1150 FILLER_106_210
*1151 FILLER_106_217
*1152 FILLER_106_224
*1153 FILLER_106_231
*1154 FILLER_106_238
*1155 FILLER_106_245
*1156 FILLER_106_252
*1157 FILLER_106_259
*1158 FILLER_106_266
*1159 FILLER_106_273
*1160 FILLER_106_28
*1161 FILLER_106_280
*1162 FILLER_106_287
*1163 FILLER_106_294
*1164 FILLER_106_301
*1165 FILLER_106_308
*1166 FILLER_106_315
*1167 FILLER_106_322
*1168 FILLER_106_329
*1169 FILLER_106_336
*1170 FILLER_106_343
*1171 FILLER_106_35
*1172 FILLER_106_350
*1173 FILLER_106_357
*1174 FILLER_106_364
*1175 FILLER_106_371
*1176 FILLER_106_378
*1177 FILLER_106_385
*1178 FILLER_106_392
*1179 FILLER_106_399
*1180 FILLER_106_406
*1181 FILLER_106_413
*1182 FILLER_106_42
*1183 FILLER_106_420
*1184 FILLER_106_427
*1185 FILLER_106_434
*1186 FILLER_106_441
*1187 FILLER_106_448
*1188 FILLER_106_455
*1189 FILLER_106_462
*1190 FILLER_106_469
*1191 FILLER_106_476
*1192 FILLER_106_483
*1193 FILLER_106_49
*1194 FILLER_106_490
*1195 FILLER_106_497
*1196 FILLER_106_504
*1197 FILLER_106_511
*1198 FILLER_106_518
*1199 FILLER_106_525
*1200 FILLER_106_532
*1201 FILLER_106_539
*1202 FILLER_106_546
*1203 FILLER_106_553
*1204 FILLER_106_56
*1205 FILLER_106_560
*1206 FILLER_106_567
*1207 FILLER_106_574
*1208 FILLER_106_581
*1209 FILLER_106_588
*1210 FILLER_106_595
*1211 FILLER_106_602
*1212 FILLER_106_609
*1213 FILLER_106_616
*1214 FILLER_106_623
*1215 FILLER_106_63
*1216 FILLER_106_630
*1217 FILLER_106_637
*1218 FILLER_106_644
*1219 FILLER_106_651
*1220 FILLER_106_658
*1221 FILLER_106_665
*1222 FILLER_106_672
*1223 FILLER_106_679
*1224 FILLER_106_686
*1225 FILLER_106_693
*1226 FILLER_106_7
*1227 FILLER_106_70
*1228 FILLER_106_700
*1229 FILLER_106_707
*1230 FILLER_106_714
*1231 FILLER_106_721
*1232 FILLER_106_728
*1233 FILLER_106_735
*1234 FILLER_106_742
*1235 FILLER_106_749
*1236 FILLER_106_756
*1237 FILLER_106_763
*1238 FILLER_106_77
*1239 FILLER_106_770
*1240 FILLER_106_777
*1241 FILLER_106_784
*1242 FILLER_106_791
*1243 FILLER_106_798
*1244 FILLER_106_805
*1245 FILLER_106_812
*1246 FILLER_106_819
*1247 FILLER_106_826
*1248 FILLER_106_833
*1249 FILLER_106_84
*1250 FILLER_106_840
*1251 FILLER_106_847
*1252 FILLER_106_854
*1253 FILLER_106_861
*1254 FILLER_106_868
*1255 FILLER_106_875
*1256 FILLER_106_882
*1257 FILLER_106_889
*1258 FILLER_106_896
*1259 FILLER_106_903
*1260 FILLER_106_91
*1261 FILLER_106_910
*1262 FILLER_106_917
*1263 FILLER_106_924
*1264 FILLER_106_931
*1265 FILLER_106_938
*1266 FILLER_106_945
*1267 FILLER_106_952
*1268 FILLER_106_959
*1269 FILLER_106_966
*1270 FILLER_106_973
*1271 FILLER_106_98
*1272 FILLER_106_980
*1273 FILLER_106_987
*1274 FILLER_106_994
*1275 FILLER_10_1005
*1276 FILLER_10_1012
*1277 FILLER_10_1019
*1278 FILLER_10_102
*1279 FILLER_10_1026
*1280 FILLER_10_1028
*1281 FILLER_10_109
*1282 FILLER_10_11
*1283 FILLER_10_116
*1284 FILLER_10_123
*1285 FILLER_10_130
*1286 FILLER_10_137
*1287 FILLER_10_144
*1288 FILLER_10_151
*1289 FILLER_10_158
*1290 FILLER_10_165
*1291 FILLER_10_172
*1292 FILLER_10_179
*1293 FILLER_10_18
*1294 FILLER_10_186
*1295 FILLER_10_193
*1296 FILLER_10_200
*1297 FILLER_10_207
*1298 FILLER_10_214
*1299 FILLER_10_221
*1300 FILLER_10_228
*1301 FILLER_10_235
*1302 FILLER_10_242
*1303 FILLER_10_249
*1304 FILLER_10_25
*1305 FILLER_10_256
*1306 FILLER_10_263
*1307 FILLER_10_270
*1308 FILLER_10_277
*1309 FILLER_10_284
*1310 FILLER_10_291
*1311 FILLER_10_298
*1312 FILLER_10_305
*1313 FILLER_10_312
*1314 FILLER_10_319
*1315 FILLER_10_32
*1316 FILLER_10_326
*1317 FILLER_10_333
*1318 FILLER_10_340
*1319 FILLER_10_347
*1320 FILLER_10_354
*1321 FILLER_10_361
*1322 FILLER_10_368
*1323 FILLER_10_375
*1324 FILLER_10_382
*1325 FILLER_10_389
*1326 FILLER_10_39
*1327 FILLER_10_396
*1328 FILLER_10_4
*1329 FILLER_10_403
*1330 FILLER_10_410
*1331 FILLER_10_417
*1332 FILLER_10_424
*1333 FILLER_10_431
*1334 FILLER_10_438
*1335 FILLER_10_445
*1336 FILLER_10_452
*1337 FILLER_10_459
*1338 FILLER_10_46
*1339 FILLER_10_466
*1340 FILLER_10_473
*1341 FILLER_10_480
*1342 FILLER_10_487
*1343 FILLER_10_494
*1344 FILLER_10_501
*1345 FILLER_10_508
*1346 FILLER_10_515
*1347 FILLER_10_522
*1348 FILLER_10_529
*1349 FILLER_10_53
*1350 FILLER_10_536
*1351 FILLER_10_543
*1352 FILLER_10_550
*1353 FILLER_10_557
*1354 FILLER_10_564
*1355 FILLER_10_571
*1356 FILLER_10_578
*1357 FILLER_10_585
*1358 FILLER_10_592
*1359 FILLER_10_599
*1360 FILLER_10_60
*1361 FILLER_10_606
*1362 FILLER_10_613
*1363 FILLER_10_620
*1364 FILLER_10_627
*1365 FILLER_10_634
*1366 FILLER_10_641
*1367 FILLER_10_648
*1368 FILLER_10_655
*1369 FILLER_10_662
*1370 FILLER_10_669
*1371 FILLER_10_67
*1372 FILLER_10_676
*1373 FILLER_10_683
*1374 FILLER_10_690
*1375 FILLER_10_697
*1376 FILLER_10_704
*1377 FILLER_10_711
*1378 FILLER_10_718
*1379 FILLER_10_725
*1380 FILLER_10_732
*1381 FILLER_10_739
*1382 FILLER_10_74
*1383 FILLER_10_746
*1384 FILLER_10_753
*1385 FILLER_10_760
*1386 FILLER_10_767
*1387 FILLER_10_774
*1388 FILLER_10_781
*1389 FILLER_10_788
*1390 FILLER_10_795
*1391 FILLER_10_802
*1392 FILLER_10_809
*1393 FILLER_10_81
*1394 FILLER_10_816
*1395 FILLER_10_823
*1396 FILLER_10_830
*1397 FILLER_10_837
*1398 FILLER_10_844
*1399 FILLER_10_851
*1400 FILLER_10_858
*1401 FILLER_10_865
*1402 FILLER_10_872
*1403 FILLER_10_879
*1404 FILLER_10_88
*1405 FILLER_10_886
*1406 FILLER_10_893
*1407 FILLER_10_900
*1408 FILLER_10_907
*1409 FILLER_10_914
*1410 FILLER_10_921
*1411 FILLER_10_928
*1412 FILLER_10_935
*1413 FILLER_10_942
*1414 FILLER_10_949
*1415 FILLER_10_95
*1416 FILLER_10_956
*1417 FILLER_10_963
*1418 FILLER_10_970
*1419 FILLER_10_977
*1420 FILLER_10_984
*1421 FILLER_10_991
*1422 FILLER_10_998
*1423 FILLER_11_0
*1424 FILLER_11_1001
*1425 FILLER_11_1008
*1426 FILLER_11_1015
*1427 FILLER_11_1022
*1428 FILLER_11_105
*1429 FILLER_11_112
*1430 FILLER_11_119
*1431 FILLER_11_126
*1432 FILLER_11_133
*1433 FILLER_11_14
*1434 FILLER_11_140
*1435 FILLER_11_147
*1436 FILLER_11_154
*1437 FILLER_11_161
*1438 FILLER_11_168
*1439 FILLER_11_175
*1440 FILLER_11_182
*1441 FILLER_11_189
*1442 FILLER_11_196
*1443 FILLER_11_203
*1444 FILLER_11_21
*1445 FILLER_11_210
*1446 FILLER_11_217
*1447 FILLER_11_224
*1448 FILLER_11_231
*1449 FILLER_11_238
*1450 FILLER_11_245
*1451 FILLER_11_252
*1452 FILLER_11_259
*1453 FILLER_11_266
*1454 FILLER_11_273
*1455 FILLER_11_28
*1456 FILLER_11_280
*1457 FILLER_11_287
*1458 FILLER_11_294
*1459 FILLER_11_301
*1460 FILLER_11_308
*1461 FILLER_11_315
*1462 FILLER_11_322
*1463 FILLER_11_329
*1464 FILLER_11_336
*1465 FILLER_11_343
*1466 FILLER_11_35
*1467 FILLER_11_350
*1468 FILLER_11_357
*1469 FILLER_11_364
*1470 FILLER_11_371
*1471 FILLER_11_378
*1472 FILLER_11_385
*1473 FILLER_11_392
*1474 FILLER_11_399
*1475 FILLER_11_406
*1476 FILLER_11_413
*1477 FILLER_11_42
*1478 FILLER_11_420
*1479 FILLER_11_427
*1480 FILLER_11_434
*1481 FILLER_11_441
*1482 FILLER_11_448
*1483 FILLER_11_455
*1484 FILLER_11_462
*1485 FILLER_11_469
*1486 FILLER_11_476
*1487 FILLER_11_483
*1488 FILLER_11_49
*1489 FILLER_11_490
*1490 FILLER_11_497
*1491 FILLER_11_504
*1492 FILLER_11_511
*1493 FILLER_11_518
*1494 FILLER_11_525
*1495 FILLER_11_532
*1496 FILLER_11_539
*1497 FILLER_11_546
*1498 FILLER_11_553
*1499 FILLER_11_56
*1500 FILLER_11_560
*1501 FILLER_11_567
*1502 FILLER_11_574
*1503 FILLER_11_581
*1504 FILLER_11_588
*1505 FILLER_11_595
*1506 FILLER_11_602
*1507 FILLER_11_609
*1508 FILLER_11_616
*1509 FILLER_11_623
*1510 FILLER_11_63
*1511 FILLER_11_630
*1512 FILLER_11_637
*1513 FILLER_11_644
*1514 FILLER_11_651
*1515 FILLER_11_658
*1516 FILLER_11_665
*1517 FILLER_11_672
*1518 FILLER_11_679
*1519 FILLER_11_686
*1520 FILLER_11_693
*1521 FILLER_11_7
*1522 FILLER_11_70
*1523 FILLER_11_700
*1524 FILLER_11_707
*1525 FILLER_11_714
*1526 FILLER_11_721
*1527 FILLER_11_728
*1528 FILLER_11_735
*1529 FILLER_11_742
*1530 FILLER_11_749
*1531 FILLER_11_756
*1532 FILLER_11_763
*1533 FILLER_11_77
*1534 FILLER_11_770
*1535 FILLER_11_777
*1536 FILLER_11_784
*1537 FILLER_11_791